
=================
  PFLOTRAN v4.0
=================

 Extent of Gridded Domain
  X: 2.5000000000000000 - 97.500000000000000
  Y: 2.5000000000000000 - 1277.5000000000000
  Z: 2.5000000000000000 - 77.500000000000000


=+=+=+=+=+=+=+=+=+=+=+=+=+=+=+=+=+=+=+=+=+=+=+=+=+=+=+=+=+=+=+=+=+=+=+=+=+=+=+=+

  Initial Condition

--------------------------------------------------------------------------------
          Flow Condition:   initial
                  Region:   all
--------------------------------------------------------------------------------

  Flow Condition: initial
    Synchronize time with update: no
    Time units: yr
    Length units: m
      Datum:
        Dataset: Unnamed Ascii Dataset
          Type: dataset_ascii_type
          Transient: no
          Array Rank:  3

    Sub Condition: pressure
      Type: hydrostatic
      Gradient:
        Dataset: Unnamed Ascii Dataset
          Type: dataset_ascii_type
          Transient: no
          Array Rank:  3
      Data:
        Dataset: Unnamed Ascii Dataset
          Type: dataset_ascii_type
          Transient: no
          Array Rank:  1

    Sub Condition: temperature
      Type: dirichlet
      Gradient:
      Data:
        Dataset: Unnamed Ascii Dataset
          Type: dataset_ascii_type
          Transient: no
          Array Rank:  1

--------------------------------------------------------------------------------

=+=+=+=+=+=+=+=+=+=+=+=+=+=+=+=+=+=+=+=+=+=+=+=+=+=+=+=+=+=+=+=+=+=+=+=+=+=+=+=+

  Boundary Condition

--------------------------------------------------------------------------------
          Flow Condition:   initial
                  Region:   north
--------------------------------------------------------------------------------

  Flow Condition: initial
    Synchronize time with update: no
    Time units: yr
    Length units: m
      Datum:
        Dataset: Unnamed Ascii Dataset
          Type: dataset_ascii_type
          Transient: no
          Array Rank:  3

    Sub Condition: pressure
      Type: hydrostatic
      Gradient:
        Dataset: Unnamed Ascii Dataset
          Type: dataset_ascii_type
          Transient: no
          Array Rank:  3
      Data:
        Dataset: Unnamed Ascii Dataset
          Type: dataset_ascii_type
          Transient: no
          Array Rank:  1

    Sub Condition: temperature
      Type: dirichlet
      Gradient:
      Data:
        Dataset: Unnamed Ascii Dataset
          Type: dataset_ascii_type
          Transient: no
          Array Rank:  1

--------------------------------------------------------------------------------

=+=+=+=+=+=+=+=+=+=+=+=+=+=+=+=+=+=+=+=+=+=+=+=+=+=+=+=+=+=+=+=+=+=+=+=+=+=+=+=+

  Boundary Condition

--------------------------------------------------------------------------------
          Flow Condition:   initial
                  Region:   south
--------------------------------------------------------------------------------

  Flow Condition: initial
    Synchronize time with update: no
    Time units: yr
    Length units: m
      Datum:
        Dataset: Unnamed Ascii Dataset
          Type: dataset_ascii_type
          Transient: no
          Array Rank:  3

    Sub Condition: pressure
      Type: hydrostatic
      Gradient:
        Dataset: Unnamed Ascii Dataset
          Type: dataset_ascii_type
          Transient: no
          Array Rank:  3
      Data:
        Dataset: Unnamed Ascii Dataset
          Type: dataset_ascii_type
          Transient: no
          Array Rank:  1

    Sub Condition: temperature
      Type: dirichlet
      Gradient:
      Data:
        Dataset: Unnamed Ascii Dataset
          Type: dataset_ascii_type
          Transient: no
          Array Rank:  1

--------------------------------------------------------------------------------

=+=+=+=+=+=+=+=+=+=+=+=+=+=+=+=+=+=+=+=+=+=+=+=+=+=+=+=+=+=+=+=+=+=+=+=+=+=+=+=+

  Boundary Condition

--------------------------------------------------------------------------------
          Flow Condition:   initial
                  Region:   west
--------------------------------------------------------------------------------

  Flow Condition: initial
    Synchronize time with update: no
    Time units: yr
    Length units: m
      Datum:
        Dataset: Unnamed Ascii Dataset
          Type: dataset_ascii_type
          Transient: no
          Array Rank:  3

    Sub Condition: pressure
      Type: hydrostatic
      Gradient:
        Dataset: Unnamed Ascii Dataset
          Type: dataset_ascii_type
          Transient: no
          Array Rank:  3
      Data:
        Dataset: Unnamed Ascii Dataset
          Type: dataset_ascii_type
          Transient: no
          Array Rank:  1

    Sub Condition: temperature
      Type: dirichlet
      Gradient:
      Data:
        Dataset: Unnamed Ascii Dataset
          Type: dataset_ascii_type
          Transient: no
          Array Rank:  1

--------------------------------------------------------------------------------

=+=+=+=+=+=+=+=+=+=+=+=+=+=+=+=+=+=+=+=+=+=+=+=+=+=+=+=+=+=+=+=+=+=+=+=+=+=+=+=+

  Boundary Condition

--------------------------------------------------------------------------------
          Flow Condition:   initial
                  Region:   east
--------------------------------------------------------------------------------

  Flow Condition: initial
    Synchronize time with update: no
    Time units: yr
    Length units: m
      Datum:
        Dataset: Unnamed Ascii Dataset
          Type: dataset_ascii_type
          Transient: no
          Array Rank:  3

    Sub Condition: pressure
      Type: hydrostatic
      Gradient:
        Dataset: Unnamed Ascii Dataset
          Type: dataset_ascii_type
          Transient: no
          Array Rank:  3
      Data:
        Dataset: Unnamed Ascii Dataset
          Type: dataset_ascii_type
          Transient: no
          Array Rank:  1

    Sub Condition: temperature
      Type: dirichlet
      Gradient:
      Data:
        Dataset: Unnamed Ascii Dataset
          Type: dataset_ascii_type
          Transient: no
          Array Rank:  1

--------------------------------------------------------------------------------

=+=+=+=+=+=+=+=+=+=+=+=+=+=+=+=+=+=+=+=+=+=+=+=+=+=+=+=+=+=+=+=+=+=+=+=+=+=+=+=+

  Source Sink

--------------------------------------------------------------------------------
          Flow Condition:   injection
                  Region:   heatpump_inject1
--------------------------------------------------------------------------------

  Flow Condition: injection
    Synchronize time with update: no
    Time units: yr
    Length units: m
      Datum:

    Sub Condition: rate
      Type: scaled volumetric rate
      Gradient:
      Data:
        Dataset: Unnamed Ascii Dataset
          Type: dataset_ascii_type
          Is transient?: yes
          Number of times:      3
          Is cyclic?: no
          Buffer:
            Rank:  2
            Dims:    1   3
            Buffer Slice Size:   0
          Array Rank:  1

    Sub Condition: temperature
      Type: dirichlet
      Gradient:
      Data:
        Dataset: Unnamed Ascii Dataset
          Type: dataset_ascii_type
          Transient: no
          Array Rank:  1

--------------------------------------------------------------------------------

 Requested processors =     1

FLOW Time Stepper
acceleration: on
acceleration threshold: 5
number of ramp entries: 5
ramp entry #1: 2.0000
ramp entry #2: 2.0000
ramp entry #3: 2.0000
ramp entry #4: 2.0000
ramp entry #5: 2.0000
ramp entry #6: 1.8000
ramp entry #7: 1.6000
ramp entry #8: 1.4000
ramp entry #9: 1.2000
ramp entry #10: 1.0000
ramp entry #11: 1.0000
ramp entry #12: 1.0000
ramp entry #13: 1.0000
maximum number of steps: 999999
constant time steps threshold: 5
maximum number of cuts: 16
reduction factor: 5.000000E-01
maximum growth factor: 2.000000E+00

FLOW Newton Solver
atol: 1.000000E-50
rtol: 1.000000E-03
stol: 1.000000E-08
dtol: 1.000000E+04
maxnorm: 1.000000E+20
inftolres: -9.990000E+02
inftolupd: 1.000000E+00
inftolrelupd: -9.990000E+02
inftolsclres: -9.990000E+02
max iter: 50
min iter: 1
maxf: 10000
matrix type: baij
precond. matrix type: baij
inexact newton: off
print convergence: on
print detailed convergence: off
check infinity norm: on

FLOW Linear Solver
solver: bcgs
preconditioner: bjacobi
atol: 1.000000E-50
rtol: 1.000000E-05
dtol: 1.000000E+04
maximum iteration: 10000

== TH FLOW =====================================================================
 Step      1 Time=  1.00000E-01 Dt=  1.00000E-01 [y] snes_conv_reason:    3
  newton =   1 [       1] linear =    28 [        28] cuts =  0 [   0]
  --> max chng: dpmx=   6.2556E+01 dtmpmx=   2.0133E-02

== TH FLOW =====================================================================
 Step      2 Time=  2.00000E-01 Dt=  1.00000E-01 [y] snes_conv_reason:   11
  newton =   1 [       2] linear =    32 [        60] cuts =  0 [   0]
  --> max chng: dpmx=   1.3219E-01 dtmpmx=   1.0493E-02

== TH FLOW =====================================================================
 Step      3 Time=  4.00000E-01 Dt=  2.00000E-01 [y] snes_conv_reason:   11
  newton =   4 [       6] linear =   100 [       160] cuts =  0 [   0]
  --> max chng: dpmx=   1.6676E+01 dtmpmx=   3.2986E+00

== TH FLOW =====================================================================
 Step      4 Time=  6.51579E-01 Dt=  2.51579E-01 [y] snes_conv_reason:   11
  newton =   2 [       8] linear =    52 [       212] cuts =  0 [   0]
  --> max chng: dpmx=   1.6980E+00 dtmpmx=   3.5492E-01

== TH FLOW =====================================================================
 Step      5 Time=  1.15158E+00 Dt=  5.00000E-01 [y] snes_conv_reason:   11
  newton =   2 [      10] linear =    54 [       266] cuts =  0 [   0]
  --> max chng: dpmx=   1.5769E+00 dtmpmx=   1.5414E-01

== TH FLOW =====================================================================
 Step      6 Time=  1.65158E+00 Dt=  5.00000E-01 [y] snes_conv_reason:   11
  newton =   1 [      11] linear =    31 [       297] cuts =  0 [   0]
  --> max chng: dpmx=   6.4428E-01 dtmpmx=   7.6470E-02

== TH FLOW =====================================================================
 Step      7 Time=  2.15158E+00 Dt=  5.00000E-01 [y] snes_conv_reason:   11
  newton =   1 [      12] linear =    29 [       326] cuts =  0 [   0]
  --> max chng: dpmx=   2.3484E-01 dtmpmx=   3.3681E-02

== TH FLOW =====================================================================
 Step      8 Time=  2.65158E+00 Dt=  5.00000E-01 [y] snes_conv_reason:   11
  newton =   1 [      13] linear =    27 [       353] cuts =  0 [   0]
  --> max chng: dpmx=   7.0049E-02 dtmpmx=   1.1203E-02

== TH FLOW =====================================================================
 Step      9 Time=  3.15158E+00 Dt=  5.00000E-01 [y] snes_conv_reason:   11
  newton =   1 [      14] linear =    25 [       378] cuts =  0 [   0]
  --> max chng: dpmx=   1.7847E-02 dtmpmx=   3.0905E-03

== TH FLOW =====================================================================
 Step     10 Time=  3.65158E+00 Dt=  5.00000E-01 [y] snes_conv_reason:   11
  newton =   1 [      15] linear =    27 [       405] cuts =  0 [   0]
  --> max chng: dpmx=   3.9210E-03 dtmpmx=   7.2651E-04

== TH FLOW =====================================================================
 Step     11 Time=  4.15158E+00 Dt=  5.00000E-01 [y] snes_conv_reason:   11
  newton =   1 [      16] linear =    26 [       431] cuts =  0 [   0]
  --> max chng: dpmx=   7.5844E-04 dtmpmx=   1.4822E-04

== TH FLOW =====================================================================
 Step     12 Time=  4.65158E+00 Dt=  5.00000E-01 [y] snes_conv_reason:   11
  newton =   1 [      17] linear =    26 [       457] cuts =  0 [   0]
  --> max chng: dpmx=   1.3148E-04 dtmpmx=   2.6752E-05

== TH FLOW =====================================================================
 Step     13 Time=  5.00000E+00 Dt=  3.48421E-01 [y] snes_conv_reason:   11
  newton =   1 [      18] linear =    23 [       480] cuts =  0 [   0]
  --> max chng: dpmx=   1.9570E-05 dtmpmx=   4.1041E-06

 Wall Clock Time:  9.6392E+00 [sec]   1.6065E-01 [min]   2.6776E-03 [hr]
