
===================
  PFLOTRAN v3.0.1
===================

 Extent of Gridded Domain
  X: 2.5000000000000000 - 97.500000000000000
  Y: 2.5000000000000000 - 1277.5000000000000
  Z: 2.5000000000000000 - 2.5000000000000000


=+=+=+=+=+=+=+=+=+=+=+=+=+=+=+=+=+=+=+=+=+=+=+=+=+=+=+=+=+=+=+=+=+=+=+=+=+=+=+=+

  Initial Condition

--------------------------------------------------------------------------------
          Flow Condition:   initial
                  Region:   all
--------------------------------------------------------------------------------

  Flow Condition: initial
    Synchronize time with update: no
    Time units: yr
    Length units: m
      Datum:
        Dataset: Unnamed Ascii Dataset
          Type: dataset_ascii_type
          Transient: no
          Array Rank:  3

    Sub Condition: pressure
      Type: hydrostatic
      Gradient:
        Dataset: Unnamed Ascii Dataset
          Type: dataset_ascii_type
          Transient: no
          Array Rank:  3
      Data:
        Dataset: Unnamed Ascii Dataset
          Type: dataset_ascii_type
          Transient: no
          Array Rank:  1

    Sub Condition: temperature
      Type: dirichlet
      Gradient:
      Data:
        Dataset: Unnamed Ascii Dataset
          Type: dataset_ascii_type
          Transient: no
          Array Rank:  1

--------------------------------------------------------------------------------

=+=+=+=+=+=+=+=+=+=+=+=+=+=+=+=+=+=+=+=+=+=+=+=+=+=+=+=+=+=+=+=+=+=+=+=+=+=+=+=+

  Boundary Condition

--------------------------------------------------------------------------------
          Flow Condition:   initial
                  Region:   north
--------------------------------------------------------------------------------

  Flow Condition: initial
    Synchronize time with update: no
    Time units: yr
    Length units: m
      Datum:
        Dataset: Unnamed Ascii Dataset
          Type: dataset_ascii_type
          Transient: no
          Array Rank:  3

    Sub Condition: pressure
      Type: hydrostatic
      Gradient:
        Dataset: Unnamed Ascii Dataset
          Type: dataset_ascii_type
          Transient: no
          Array Rank:  3
      Data:
        Dataset: Unnamed Ascii Dataset
          Type: dataset_ascii_type
          Transient: no
          Array Rank:  1

    Sub Condition: temperature
      Type: dirichlet
      Gradient:
      Data:
        Dataset: Unnamed Ascii Dataset
          Type: dataset_ascii_type
          Transient: no
          Array Rank:  1

--------------------------------------------------------------------------------

=+=+=+=+=+=+=+=+=+=+=+=+=+=+=+=+=+=+=+=+=+=+=+=+=+=+=+=+=+=+=+=+=+=+=+=+=+=+=+=+

  Boundary Condition

--------------------------------------------------------------------------------
          Flow Condition:   initial
                  Region:   south
--------------------------------------------------------------------------------

  Flow Condition: initial
    Synchronize time with update: no
    Time units: yr
    Length units: m
      Datum:
        Dataset: Unnamed Ascii Dataset
          Type: dataset_ascii_type
          Transient: no
          Array Rank:  3

    Sub Condition: pressure
      Type: hydrostatic
      Gradient:
        Dataset: Unnamed Ascii Dataset
          Type: dataset_ascii_type
          Transient: no
          Array Rank:  3
      Data:
        Dataset: Unnamed Ascii Dataset
          Type: dataset_ascii_type
          Transient: no
          Array Rank:  1

    Sub Condition: temperature
      Type: dirichlet
      Gradient:
      Data:
        Dataset: Unnamed Ascii Dataset
          Type: dataset_ascii_type
          Transient: no
          Array Rank:  1

--------------------------------------------------------------------------------

=+=+=+=+=+=+=+=+=+=+=+=+=+=+=+=+=+=+=+=+=+=+=+=+=+=+=+=+=+=+=+=+=+=+=+=+=+=+=+=+

  Source Sink

--------------------------------------------------------------------------------
          Flow Condition:   injection
                  Region:   heatpump_inject1
--------------------------------------------------------------------------------

  Flow Condition: injection
    Synchronize time with update: no
    Time units: yr
    Length units: m
      Datum:

    Sub Condition: rate
      Type: scaled volumetric rate
      Gradient:
      Data:
        Dataset: Unnamed Ascii Dataset
          Type: dataset_ascii_type
          Is transient?: yes
          Number of times:      3
          Is cyclic?: no
          Buffer:
            Rank:  2
            Dims:    1   3
            Buffer Slice Size:   0
          Array Rank:  1

    Sub Condition: temperature
      Type: dirichlet
      Gradient:
      Data:
        Dataset: Unnamed Ascii Dataset
          Type: dataset_ascii_type
          Transient: no
          Array Rank:  1

--------------------------------------------------------------------------------

 Requested processors =    16

FLOW Time Stepper
                 acceleration: on
       acceleration threshold: 5
       number of ramp entries: 5
                ramp entry #1: 2.0000
                ramp entry #2: 2.0000
                ramp entry #3: 2.0000
                ramp entry #4: 2.0000
                ramp entry #5: 2.0000
                ramp entry #6: 1.8000
                ramp entry #7: 1.6000
                ramp entry #8: 1.4000
                ramp entry #9: 1.2000
               ramp entry #10: 1.0000
               ramp entry #11: 1.0000
               ramp entry #12: 1.0000
               ramp entry #13: 1.0000
      maximum number of steps: 999999
constant time steps threshold: 5
       maximum number of cuts: 16
             reduction factor: 5.000000E-01
        maximum growth factor: 2.000000E+00

FLOW Newton Solver
                         atol: 1.000000E-50
                         rtol: 1.000000E-03
                         stol: 1.000000E-08
                         dtol: 1.000000E+04
                      maxnorm: 1.000000E+20
                    inftolres: -9.990000E+02
                    inftolupd: 1.000000E+00
                 inftolrelupd: -9.990000E+02
                 inftolsclres: -9.990000E+02
                     max iter: 50
                     min iter: 1
                         maxf: 10000
                  matrix type: baij
         precond. matrix type: baij
               inexact newton: off
            print convergence: on
   print detailed convergence: off
          check infinity norm: on

FLOW Linear Solver
                       solver: bcgs
               preconditioner: bjacobi
                         atol: 1.000000E-50
                         rtol: 1.000000E-05
                         dtol: 1.000000E+04
            maximum iteration: 10000

== TH FLOW =====================================================================
  0 2r: 3.38E-07 2x: 0.00E+00 2u: 0.00E+00 ir: 4.72E-09 iu: 0.00E+00 rsn:   0
  1 2r: 5.66E-12 2x: 6.36E+07 2u: 8.67E+00 ir: 2.76E-13 iu: 1.66E-01 rsn: itol_upd
 Step      1 Time=  1.00000E-05 Dt=  1.00000E-05 [y] snes_conv_reason:   11
  newton =   1 [       1] linear =    81 [        81] cuts =  0 [   0]
  --> max chng: dpmx=   1.6588E-01 dtmpmx=   2.7521E-07

== TH FLOW =====================================================================
  0 2r: 3.27E-07 2x: 0.00E+00 2u: 0.00E+00 ir: 4.58E-09 iu: 0.00E+00 rsn:   0
  1 2r: 3.64E-12 2x: 6.36E+07 2u: 1.34E-01 ir: 1.65E-13 iu: 2.63E-03 rsn: itol_upd
 Step      2 Time=  3.00000E-05 Dt=  2.00000E-05 [y] snes_conv_reason:   11
  newton =   1 [       2] linear =   124 [       205] cuts =  0 [   0]
  --> max chng: dpmx=   2.6348E-03 dtmpmx=   5.5002E-07

== TH FLOW =====================================================================
  0 2r: 3.27E-07 2x: 0.00E+00 2u: 0.00E+00 ir: 4.57E-09 iu: 0.00E+00 rsn:   0
  1 2r: 2.04E-12 2x: 6.36E+07 2u: 8.77E-04 ir: 8.59E-14 iu: 1.78E-05 rsn: itol_upd
 Step      3 Time=  7.00000E-05 Dt=  4.00000E-05 [y] snes_conv_reason:   11
  newton =   1 [       3] linear =   124 [       329] cuts =  0 [   0]
  --> max chng: dpmx=   1.7849E-05 dtmpmx=   1.1000E-06

== TH FLOW =====================================================================
  0 2r: 3.27E-07 2x: 0.00E+00 2u: 0.00E+00 ir: 4.57E-09 iu: 0.00E+00 rsn:   0
  1 2r: 1.16E-12 2x: 6.36E+07 2u: 4.96E-04 ir: 5.18E-14 iu: 1.13E-05 rsn: itol_upd
 Step      4 Time=  1.50000E-04 Dt=  8.00000E-05 [y] snes_conv_reason:   11
  newton =   1 [       4] linear =   120 [       449] cuts =  0 [   0]
  --> max chng: dpmx=   1.1323E-05 dtmpmx=   2.2001E-06

== TH FLOW =====================================================================
  0 2r: 3.27E-07 2x: 0.00E+00 2u: 0.00E+00 ir: 4.57E-09 iu: 0.00E+00 rsn:   0
  1 2r: 7.86E-13 2x: 6.36E+07 2u: 1.09E-03 ir: 3.42E-14 iu: 2.49E-05 rsn: itol_upd
 Step      5 Time=  3.10000E-04 Dt=  1.60000E-04 [y] snes_conv_reason:   11
  newton =   1 [       5] linear =   117 [       566] cuts =  0 [   0]
  --> max chng: dpmx=   2.4861E-05 dtmpmx=   4.4002E-06

== TH FLOW =====================================================================
  0 2r: 3.26E-07 2x: 0.00E+00 2u: 0.00E+00 ir: 4.57E-09 iu: 0.00E+00 rsn:   0
  1 2r: 5.57E-13 2x: 6.36E+07 2u: 2.53E-03 ir: 2.65E-14 iu: 5.85E-05 rsn: itol_upd
 Step      6 Time=  6.30000E-04 Dt=  3.20000E-04 [y] snes_conv_reason:   11
  newton =   1 [       6] linear =   123 [       689] cuts =  0 [   0]
  --> max chng: dpmx=   5.8474E-05 dtmpmx=   8.8004E-06

== TH FLOW =====================================================================
  0 2r: 3.26E-07 2x: 0.00E+00 2u: 0.00E+00 ir: 4.57E-09 iu: 0.00E+00 rsn:   0
  1 2r: 4.73E-13 2x: 6.36E+07 2u: 6.51E-03 ir: 2.34E-14 iu: 1.52E-04 rsn: itol_upd
 Step      7 Time=  1.27000E-03 Dt=  6.40000E-04 [y] snes_conv_reason:   11
  newton =   1 [       7] linear =   122 [       811] cuts =  0 [   0]
  --> max chng: dpmx=   1.5190E-04 dtmpmx=   1.7601E-05

== TH FLOW =====================================================================
  0 2r: 3.26E-07 2x: 0.00E+00 2u: 0.00E+00 ir: 4.57E-09 iu: 0.00E+00 rsn:   0
  1 2r: 4.69E-13 2x: 6.36E+07 2u: 1.88E-02 ir: 2.35E-14 iu: 4.41E-04 rsn: itol_upd
 Step      8 Time=  2.55000E-03 Dt=  1.28000E-03 [y] snes_conv_reason:   11
  newton =   1 [       8] linear =   123 [       934] cuts =  0 [   0]
  --> max chng: dpmx=   4.4121E-04 dtmpmx=   3.5202E-05

== TH FLOW =====================================================================
  0 2r: 3.25E-07 2x: 0.00E+00 2u: 0.00E+00 ir: 4.57E-09 iu: 0.00E+00 rsn:   0
  1 2r: 6.08E-13 2x: 6.36E+07 2u: 6.06E-02 ir: 4.76E-14 iu: 1.42E-03 rsn: itol_upd
 Step      9 Time=  5.11000E-03 Dt=  2.56000E-03 [y] snes_conv_reason:   11
  newton =   1 [       9] linear =   122 [      1056] cuts =  0 [   0]
  --> max chng: dpmx=   1.4165E-03 dtmpmx=   7.0403E-05

== TH FLOW =====================================================================
  0 2r: 3.24E-07 2x: 0.00E+00 2u: 0.00E+00 ir: 4.57E-09 iu: 0.00E+00 rsn:   0
  1 2r: 5.12E-13 2x: 6.36E+07 2u: 2.11E-01 ir: 2.49E-14 iu: 4.86E-03 rsn: itol_upd
 Step     10 Time=  1.02300E-02 Dt=  5.12000E-03 [y] snes_conv_reason:   11
  newton =   1 [      10] linear =   118 [      1174] cuts =  0 [   0]
  --> max chng: dpmx=   4.8594E-03 dtmpmx=   1.4081E-04

== TH FLOW =====================================================================
  0 2r: 3.21E-07 2x: 0.00E+00 2u: 0.00E+00 ir: 4.57E-09 iu: 0.00E+00 rsn:   0
  1 2r: 7.66E-13 2x: 6.36E+07 2u: 7.58E-01 ir: 5.31E-14 iu: 1.70E-02 rsn: itol_upd
 Step     11 Time=  2.04700E-02 Dt=  1.02400E-02 [y] snes_conv_reason:   11
  newton =   1 [      11] linear =   122 [      1296] cuts =  0 [   0]
  --> max chng: dpmx=   1.7032E-02 dtmpmx=   2.8161E-04

== TH FLOW =====================================================================
  0 2r: 3.15E-07 2x: 0.00E+00 2u: 0.00E+00 ir: 4.57E-09 iu: 0.00E+00 rsn:   0
  1 2r: 7.32E-13 2x: 6.36E+07 2u: 2.68E+00 ir: 9.99E-14 iu: 5.80E-02 rsn: itol_upd
 Step     12 Time=  4.09500E-02 Dt=  2.04800E-02 [y] snes_conv_reason:   11
  newton =   1 [      12] linear =   123 [      1419] cuts =  0 [   0]
  --> max chng: dpmx=   5.8028E-02 dtmpmx=   5.6323E-04

== TH FLOW =====================================================================
  0 2r: 3.02E-07 2x: 0.00E+00 2u: 0.00E+00 ir: 4.57E-09 iu: 0.00E+00 rsn:   0
  1 2r: 2.79E-12 2x: 6.36E+07 2u: 8.62E+00 ir: 1.18E-12 iu: 1.78E-01 rsn: itol_upd
 Step     13 Time=  8.19100E-02 Dt=  4.09600E-02 [y] snes_conv_reason:   11
  newton =   1 [      13] linear =   124 [      1543] cuts =  0 [   0]
  --> max chng: dpmx=   1.7810E-01 dtmpmx=   1.1259E-03

== TH FLOW =====================================================================
  0 2r: 2.76E-07 2x: 0.00E+00 2u: 0.00E+00 ir: 4.57E-09 iu: 0.00E+00 rsn:   0
  1 2r: 5.22E-13 2x: 6.36E+07 2u: 4.34E+00 ir: 2.16E-14 iu: 8.96E-02 rsn: itol_upd
 Step     14 Time=  1.00000E-01 Dt=  1.80900E-02 [y] snes_conv_reason:   11
  newton =   1 [      14] linear =   118 [      1661] cuts =  0 [   0]
  --> max chng: dpmx=   8.9563E-02 dtmpmx=   4.9708E-04

== TH FLOW =====================================================================
  0 2r: 2.65E-07 2x: 0.00E+00 2u: 0.00E+00 ir: 4.57E-09 iu: 0.00E+00 rsn:   0
  1 2r: 1.56E-12 2x: 6.36E+07 2u: 1.37E+01 ir: 1.80E-13 iu: 2.77E-01 rsn: itol_upd
 Step     15 Time=  1.50000E-01 Dt=  5.00000E-02 [y] snes_conv_reason:   11
  newton =   1 [      15] linear =   121 [      1782] cuts =  0 [   0]
  --> max chng: dpmx=   2.7712E-01 dtmpmx=   1.3592E-03

== TH FLOW =====================================================================
  0 2r: 2.30E-07 2x: 0.00E+00 2u: 0.00E+00 ir: 4.52E-09 iu: 0.00E+00 rsn:   0
  1 2r: 1.58E-12 2x: 6.36E+07 2u: 1.34E+01 ir: 5.87E-14 iu: 2.71E-01 rsn: itol_upd
 Step     16 Time=  2.00000E-01 Dt=  5.00000E-02 [y] snes_conv_reason:   11
  newton =   1 [      16] linear =   117 [      1899] cuts =  0 [   0]
  --> max chng: dpmx=   2.7057E-01 dtmpmx=   1.3102E-03

== TH FLOW =====================================================================
  0 2r: 1.66E-04 2x: 0.00E+00 2u: 0.00E+00 ir: 1.27E-04 iu: 0.00E+00 rsn:   0
  1 2r: 2.96E-06 2x: 6.36E+07 2u: 5.77E+02 ir: 2.63E-06 iu: 1.72E+01 rsn:   0
  2 2r: 7.17E-10 2x: 6.36E+07 2u: 2.26E-01 ir: 6.82E-10 iu: 1.67E-02 rsn: itol_upd
 Step     17 Time=  2.50000E-01 Dt=  5.00000E-02 [y] snes_conv_reason:   11
  newton =   2 [      18] linear =   238 [      2137] cuts =  0 [   0]
  --> max chng: dpmx=   1.7168E+01 dtmpmx=   3.2349E-01

== TH FLOW =====================================================================
  0 2r: 4.53E-06 2x: 0.00E+00 2u: 0.00E+00 ir: 1.08E-06 iu: 0.00E+00 rsn:   0
  1 2r: 5.91E-09 2x: 6.36E+07 2u: 3.11E+01 ir: 8.20E-10 iu: 6.96E-01 rsn: itol_upd
 Step     18 Time=  3.00000E-01 Dt=  5.00000E-02 [y] snes_conv_reason:   11
  newton =   1 [      19] linear =   118 [      2255] cuts =  0 [   0]
  --> max chng: dpmx=   6.9589E-01 dtmpmx=   1.1809E-01

== TH FLOW =====================================================================
  0 2r: 3.13E-06 2x: 0.00E+00 2u: 0.00E+00 ir: 3.93E-07 iu: 0.00E+00 rsn:   0
  1 2r: 2.55E-09 2x: 6.36E+07 2u: 1.86E+01 ir: 3.98E-10 iu: 4.80E-01 rsn: itol_upd
 Step     19 Time=  3.50000E-01 Dt=  5.00000E-02 [y] snes_conv_reason:   11
  newton =   1 [      20] linear =   118 [      2373] cuts =  0 [   0]
  --> max chng: dpmx=   4.7961E-01 dtmpmx=   8.5040E-02

== TH FLOW =====================================================================
  0 2r: 2.66E-06 2x: 0.00E+00 2u: 0.00E+00 ir: 2.83E-07 iu: 0.00E+00 rsn:   0
  1 2r: 1.56E-09 2x: 6.36E+07 2u: 2.44E+01 ir: 3.54E-10 iu: 6.25E-01 rsn: itol_upd
 Step     20 Time=  4.00000E-01 Dt=  5.00000E-02 [y] snes_conv_reason:   11
  newton =   1 [      21] linear =   112 [      2485] cuts =  0 [   0]
  --> max chng: dpmx=   6.2510E-01 dtmpmx=   6.8886E-02

== TH FLOW =====================================================================
  0 2r: 2.36E-06 2x: 0.00E+00 2u: 0.00E+00 ir: 2.29E-07 iu: 0.00E+00 rsn:   0
  1 2r: 9.07E-10 2x: 6.36E+07 2u: 3.21E+01 ir: 1.00E-10 iu: 7.21E-01 rsn: itol_upd
 Step     21 Time=  4.50000E-01 Dt=  5.00000E-02 [y] snes_conv_reason:   11
  newton =   1 [      22] linear =   114 [      2599] cuts =  0 [   0]
  --> max chng: dpmx=   7.2066E-01 dtmpmx=   5.8799E-02

== TH FLOW =====================================================================
  0 2r: 2.10E-06 2x: 0.00E+00 2u: 0.00E+00 ir: 1.96E-07 iu: 0.00E+00 rsn:   0
  1 2r: 5.93E-10 2x: 6.36E+07 2u: 3.44E+01 ir: 4.77E-11 iu: 7.27E-01 rsn: itol_upd
 Step     22 Time=  5.00000E-01 Dt=  5.00000E-02 [y] snes_conv_reason:   11
  newton =   1 [      23] linear =   116 [      2715] cuts =  0 [   0]
  --> max chng: dpmx=   7.2707E-01 dtmpmx=   5.1707E-02

== TH FLOW =====================================================================
  0 2r: 1.82E-06 2x: 0.00E+00 2u: 0.00E+00 ir: 1.72E-07 iu: 0.00E+00 rsn:   0
  1 2r: 3.99E-10 2x: 6.36E+07 2u: 3.12E+01 ir: 3.37E-11 iu: 6.47E-01 rsn: itol_upd
 Step     23 Time=  5.50000E-01 Dt=  5.00000E-02 [y] snes_conv_reason:   11
  newton =   1 [      24] linear =   113 [      2828] cuts =  0 [   0]
  --> max chng: dpmx=   6.4686E-01 dtmpmx=   4.6358E-02

== TH FLOW =====================================================================
  0 2r: 1.49E-06 2x: 0.00E+00 2u: 0.00E+00 ir: 1.54E-07 iu: 0.00E+00 rsn:   0
  1 2r: 3.02E-10 2x: 6.36E+07 2u: 2.49E+01 ir: 2.49E-11 iu: 5.13E-01 rsn: itol_upd
 Step     24 Time=  6.00000E-01 Dt=  5.00000E-02 [y] snes_conv_reason:   11
  newton =   1 [      25] linear =   108 [      2936] cuts =  0 [   0]
  --> max chng: dpmx=   5.1298E-01 dtmpmx=   4.2034E-02

== TH FLOW =====================================================================
  0 2r: 1.14E-06 2x: 0.00E+00 2u: 0.00E+00 ir: 1.40E-07 iu: 0.00E+00 rsn:   0
  1 2r: 2.27E-10 2x: 6.36E+07 2u: 1.78E+01 ir: 2.30E-11 iu: 3.66E-01 rsn: itol_upd
 Step     25 Time=  6.50000E-01 Dt=  5.00000E-02 [y] snes_conv_reason:   11
  newton =   1 [      26] linear =   113 [      3049] cuts =  0 [   0]
  --> max chng: dpmx=   3.6646E-01 dtmpmx=   3.5328E-02

== TH FLOW =====================================================================
  0 2r: 8.05E-07 2x: 0.00E+00 2u: 0.00E+00 ir: 1.17E-07 iu: 0.00E+00 rsn:   0
  1 2r: 1.43E-10 2x: 6.36E+07 2u: 1.15E+01 ir: 1.97E-11 iu: 2.38E-01 rsn: itol_upd
 Step     26 Time=  7.00000E-01 Dt=  5.00000E-02 [y] snes_conv_reason:   11
  newton =   1 [      27] linear =   117 [      3166] cuts =  0 [   0]
  --> max chng: dpmx=   2.3825E-01 dtmpmx=   2.6473E-02

== TH FLOW =====================================================================
  0 2r: 5.27E-07 2x: 0.00E+00 2u: 0.00E+00 ir: 8.80E-08 iu: 0.00E+00 rsn:   0
  1 2r: 7.30E-11 2x: 6.36E+07 2u: 6.81E+00 ir: 1.21E-11 iu: 1.42E-01 rsn: itol_upd
 Step     27 Time=  7.50000E-01 Dt=  5.00000E-02 [y] snes_conv_reason:   11
  newton =   1 [      28] linear =   120 [      3286] cuts =  0 [   0]
  --> max chng: dpmx=   1.4207E-01 dtmpmx=   1.7913E-02

== TH FLOW =====================================================================
  0 2r: 3.19E-07 2x: 0.00E+00 2u: 0.00E+00 ir: 5.96E-08 iu: 0.00E+00 rsn:   0
  1 2r: 3.07E-11 2x: 6.36E+07 2u: 3.73E+00 ir: 5.72E-12 iu: 7.83E-02 rsn: itol_upd
 Step     28 Time=  8.00000E-01 Dt=  5.00000E-02 [y] snes_conv_reason:   11
  newton =   1 [      29] linear =   123 [      3409] cuts =  0 [   0]
  --> max chng: dpmx=   7.8301E-02 dtmpmx=   1.1059E-02

== TH FLOW =====================================================================
  0 2r: 1.79E-07 2x: 0.00E+00 2u: 0.00E+00 ir: 3.68E-08 iu: 0.00E+00 rsn:   0
  1 2r: 8.53E-11 2x: 6.36E+07 2u: 1.90E+00 ir: 6.80E-11 iu: 4.01E-02 rsn: itol_upd
 Step     29 Time=  8.50000E-01 Dt=  5.00000E-02 [y] snes_conv_reason:   11
  newton =   1 [      30] linear =   123 [      3532] cuts =  0 [   0]
  --> max chng: dpmx=   4.0125E-02 dtmpmx=   6.2821E-03

== TH FLOW =====================================================================
  0 2r: 9.42E-08 2x: 0.00E+00 2u: 0.00E+00 ir: 2.08E-08 iu: 0.00E+00 rsn:   0
  1 2r: 3.35E-12 2x: 6.36E+07 2u: 9.04E-01 ir: 1.21E-12 iu: 1.92E-02 rsn: itol_upd
 Step     30 Time=  9.00000E-01 Dt=  5.00000E-02 [y] snes_conv_reason:   11
  newton =   1 [      31] linear =   123 [      3655] cuts =  0 [   0]
  --> max chng: dpmx=   1.9218E-02 dtmpmx=   3.3059E-03

== TH FLOW =====================================================================
  0 2r: 4.63E-08 2x: 0.00E+00 2u: 0.00E+00 ir: 1.10E-08 iu: 0.00E+00 rsn:   0
  1 2r: 2.54E-12 2x: 6.36E+07 2u: 4.04E-01 ir: 1.66E-12 iu: 8.64E-03 rsn: itol_upd
 Step     31 Time=  9.50000E-01 Dt=  5.00000E-02 [y] snes_conv_reason:   11
  newton =   1 [      32] linear =   123 [      3778] cuts =  0 [   0]
  --> max chng: dpmx=   8.6387E-03 dtmpmx=   1.6217E-03

== TH FLOW =====================================================================
  0 2r: 2.14E-08 2x: 0.00E+00 2u: 0.00E+00 ir: 5.39E-09 iu: 0.00E+00 rsn:   0
  1 2r: 6.14E-13 2x: 6.36E+07 2u: 1.70E-01 ir: 2.37E-13 iu: 3.66E-03 rsn: itol_upd
 Step     32 Time=  1.00000E+00 Dt=  5.00000E-02 [y] snes_conv_reason:   11
  newton =   1 [      33] linear =   124 [      3902] cuts =  0 [   0]
  --> max chng: dpmx=   3.6573E-03 dtmpmx=   7.4478E-04

== TH FLOW =====================================================================
  0 2r: 9.28E-09 2x: 0.00E+00 2u: 0.00E+00 ir: 2.48E-09 iu: 0.00E+00 rsn:   0
  1 2r: 3.84E-13 2x: 6.36E+07 2u: 6.74E-02 ir: 2.40E-14 iu: 1.46E-03 rsn: itol_upd
 Step     33 Time=  1.05000E+00 Dt=  5.00000E-02 [y] snes_conv_reason:   11
  newton =   1 [      34] linear =   125 [      4027] cuts =  0 [   0]
  --> max chng: dpmx=   1.4615E-03 dtmpmx=   3.2143E-04

== TH FLOW =====================================================================
  0 2r: 3.81E-09 2x: 0.00E+00 2u: 0.00E+00 ir: 1.07E-09 iu: 0.00E+00 rsn:   0
  1 2r: 3.77E-13 2x: 6.36E+07 2u: 2.53E-02 ir: 1.91E-14 iu: 5.52E-04 rsn: itol_upd
 Step     34 Time=  1.10000E+00 Dt=  5.00000E-02 [y] snes_conv_reason:   11
  newton =   1 [      35] linear =   123 [      4150] cuts =  0 [   0]
  --> max chng: dpmx=   5.5211E-04 dtmpmx=   1.3070E-04

== TH FLOW =====================================================================
  0 2r: 1.48E-09 2x: 0.00E+00 2u: 0.00E+00 ir: 4.35E-10 iu: 0.00E+00 rsn:   0
  1 2r: 3.79E-13 2x: 6.36E+07 2u: 8.91E-03 ir: 1.82E-14 iu: 1.97E-04 rsn: itol_upd
 Step     35 Time=  1.15000E+00 Dt=  5.00000E-02 [y] snes_conv_reason:   11
  newton =   1 [      36] linear =   125 [      4275] cuts =  0 [   0]
  --> max chng: dpmx=   1.9678E-04 dtmpmx=   5.0127E-05

== TH FLOW =====================================================================
  0 2r: 5.41E-10 2x: 0.00E+00 2u: 0.00E+00 ir: 1.67E-10 iu: 0.00E+00 rsn:   0
  1 2r: 3.79E-13 2x: 6.36E+07 2u: 2.95E-03 ir: 1.90E-14 iu: 6.60E-05 rsn: itol_upd
 Step     36 Time=  1.20000E+00 Dt=  5.00000E-02 [y] snes_conv_reason:   11
  newton =   1 [      37] linear =   127 [      4402] cuts =  0 [   0]
  --> max chng: dpmx=   6.6016E-05 dtmpmx=   1.8110E-05

== TH FLOW =====================================================================
  0 2r: 1.87E-10 2x: 0.00E+00 2u: 0.00E+00 ir: 6.02E-11 iu: 0.00E+00 rsn:   0
  1 2r: 3.77E-13 2x: 6.36E+07 2u: 8.96E-04 ir: 2.07E-14 iu: 2.06E-05 rsn: itol_upd
 Step     37 Time=  1.25000E+00 Dt=  5.00000E-02 [y] snes_conv_reason:   11
  newton =   1 [      38] linear =   127 [      4529] cuts =  0 [   0]
  --> max chng: dpmx=   2.0574E-05 dtmpmx=   6.1294E-06

== TH FLOW =====================================================================
  0 2r: 6.00E-11 2x: 0.00E+00 2u: 0.00E+00 ir: 2.04E-11 iu: 0.00E+00 rsn:   0
  1 2r: 3.74E-13 2x: 6.36E+07 2u: 2.40E-04 ir: 1.91E-14 iu: 5.82E-06 rsn: itol_upd
 Step     38 Time=  1.30000E+00 Dt=  5.00000E-02 [y] snes_conv_reason:   11
  newton =   1 [      39] linear =   129 [      4658] cuts =  0 [   0]
  --> max chng: dpmx=   5.8243E-06 dtmpmx=   1.9161E-06

== TH FLOW =====================================================================
  0 2r: 1.76E-11 2x: 0.00E+00 2u: 0.00E+00 ir: 6.37E-12 iu: 0.00E+00 rsn:   0
  1 2r: 3.69E-13 2x: 6.36E+07 2u: 5.02E-05 ir: 1.76E-14 iu: 1.42E-06 rsn: itol_upd
 Step     39 Time=  1.35000E+00 Dt=  5.00000E-02 [y] snes_conv_reason:   11
  newton =   1 [      40] linear =   130 [      4788] cuts =  0 [   0]
  --> max chng: dpmx=   1.4177E-06 dtmpmx=   5.3375E-07

== TH FLOW =====================================================================
  0 2r: 4.56E-12 2x: 0.00E+00 2u: 0.00E+00 ir: 1.78E-12 iu: 0.00E+00 rsn:   0
  1 2r: 3.71E-13 2x: 6.36E+07 2u: 6.24E-06 ir: 1.98E-14 iu: 2.61E-07 rsn: itol_upd
 Step     40 Time=  1.40000E+00 Dt=  5.00000E-02 [y] snes_conv_reason:   11
  newton =   1 [      41] linear =   130 [      4918] cuts =  0 [   0]
  --> max chng: dpmx=   2.6124E-07 dtmpmx=   1.1892E-07

== TH FLOW =====================================================================
  0 2r: 1.08E-12 2x: 0.00E+00 2u: 0.00E+00 ir: 3.98E-13 iu: 0.00E+00 rsn:   0
  1 2r: 3.74E-13 2x: 6.36E+07 2u: 6.58E-06 ir: 2.13E-14 iu: 1.43E-07 rsn: itol_upd
 Step     41 Time=  1.45000E+00 Dt=  5.00000E-02 [y] snes_conv_reason:   11
  newton =   1 [      42] linear =   126 [      5044] cuts =  0 [   0]
  --> max chng: dpmx=   1.4261E-07 dtmpmx=   1.8487E-08

== TH FLOW =====================================================================
  0 2r: 5.44E-13 2x: 0.00E+00 2u: 0.00E+00 ir: 6.95E-14 iu: 0.00E+00 rsn:   0
  1 2r: 3.77E-13 2x: 6.36E+07 2u: 4.91E-06 ir: 2.03E-14 iu: 1.04E-07 rsn: itol_upd
 Step     42 Time=  1.50000E+00 Dt=  5.00000E-02 [y] snes_conv_reason:   11
  newton =   1 [      43] linear =   119 [      5163] cuts =  0 [   0]
  --> max chng: dpmx=   1.0408E-07 dtmpmx=   1.2773E-08

== TH FLOW =====================================================================
  0 2r: 4.58E-13 2x: 0.00E+00 2u: 0.00E+00 ir: 4.70E-14 iu: 0.00E+00 rsn:   0
  1 2r: 3.77E-13 2x: 6.36E+07 2u: 2.77E-06 ir: 2.05E-14 iu: 5.86E-08 rsn: itol_upd
 Step     43 Time=  1.55000E+00 Dt=  5.00000E-02 [y] snes_conv_reason:   11
  newton =   1 [      44] linear =   122 [      5285] cuts =  0 [   0]
  --> max chng: dpmx=   5.8557E-08 dtmpmx=   8.8940E-09

== TH FLOW =====================================================================
  0 2r: 4.04E-13 2x: 0.00E+00 2u: 0.00E+00 ir: 3.28E-14 iu: 0.00E+00 rsn:   0
  1 2r: 3.79E-13 2x: 6.36E+07 2u: 1.39E-06 ir: 1.92E-14 iu: 2.93E-08 rsn: itol_upd
 Step     44 Time=  1.60000E+00 Dt=  5.00000E-02 [y] snes_conv_reason:   11
  newton =   1 [      45] linear =   120 [      5405] cuts =  0 [   0]
  --> max chng: dpmx=   2.9220E-08 dtmpmx=   5.2979E-09

== TH FLOW =====================================================================
  0 2r: 3.83E-13 2x: 0.00E+00 2u: 0.00E+00 ir: 2.36E-14 iu: 0.00E+00 rsn:   0
  1 2r: 3.79E-13 2x: 6.36E+07 2u: 6.47E-07 ir: 2.06E-14 iu: 1.38E-08 rsn: itol_upd
 Step     45 Time=  1.65000E+00 Dt=  5.00000E-02 [y] snes_conv_reason:   11
  newton =   1 [      46] linear =   125 [      5530] cuts =  0 [   0]
  --> max chng: dpmx=   1.3853E-08 dtmpmx=   2.7707E-09

== TH FLOW =====================================================================
  0 2r: 3.77E-13 2x: 0.00E+00 2u: 0.00E+00 ir: 2.04E-14 iu: 0.00E+00 rsn:   0
  1 2r: 3.69E-13 2x: 6.36E+07 2u: 2.82E-07 ir: 1.90E-14 iu: 6.21E-09 rsn: itol_upd
 Step     46 Time=  1.70000E+00 Dt=  5.00000E-02 [y] snes_conv_reason:   11
  newton =   1 [      47] linear =   127 [      5657] cuts =  0 [   0]
  --> max chng: dpmx=   6.1700E-09 dtmpmx=   1.2695E-09

== TH FLOW =====================================================================
  0 2r: 3.66E-13 2x: 0.00E+00 2u: 0.00E+00 ir: 1.89E-14 iu: 0.00E+00 rsn:   0
  1 2r: 3.69E-13 2x: 6.36E+07 2u: 1.19E-07 ir: 1.85E-14 iu: 2.89E-09 rsn: itol_upd
 Step     47 Time=  1.75000E+00 Dt=  5.00000E-02 [y] snes_conv_reason:   11
  newton =   1 [      48] linear =   122 [      5779] cuts =  0 [   0]
  --> max chng: dpmx=   2.9104E-09 dtmpmx=   5.8427E-10

== TH FLOW =====================================================================
  0 2r: 3.65E-13 2x: 0.00E+00 2u: 0.00E+00 ir: 1.84E-14 iu: 0.00E+00 rsn:   0
  1 2r: 3.74E-13 2x: 6.36E+07 2u: 4.25E-08 ir: 1.90E-14 iu: 1.08E-09 rsn: itol_upd
 Step     48 Time=  1.80000E+00 Dt=  5.00000E-02 [y] snes_conv_reason:   11
  newton =   1 [      49] linear =   130 [      5909] cuts =  0 [   0]
  --> max chng: dpmx=   1.0477E-09 dtmpmx=   2.8293E-10

== TH FLOW =====================================================================
  0 2r: 3.71E-13 2x: 0.00E+00 2u: 0.00E+00 ir: 1.90E-14 iu: 0.00E+00 rsn:   0
  1 2r: 3.83E-13 2x: 6.36E+07 2u: 1.62E-08 ir: 2.06E-14 iu: 6.24E-10 rsn: itol_upd
 Step     49 Time=  1.85000E+00 Dt=  5.00000E-02 [y] snes_conv_reason:   11
  newton =   1 [      50] linear =   113 [      6022] cuts =  0 [   0]
  --> max chng: dpmx=   5.8208E-10 dtmpmx=   1.3862E-10

== TH FLOW =====================================================================
  0 2r: 3.80E-13 2x: 0.00E+00 2u: 0.00E+00 ir: 2.05E-14 iu: 0.00E+00 rsn:   0
  1 2r: 3.80E-13 2x: 6.36E+07 2u: 1.07E-08 ir: 1.83E-14 iu: 4.79E-10 rsn: itol_upd
 Step     50 Time=  1.90000E+00 Dt=  5.00000E-02 [y] snes_conv_reason:   11
  newton =   1 [      51] linear =   110 [      6132] cuts =  0 [   0]
  --> max chng: dpmx=   4.6566E-10 dtmpmx=   1.1405E-10

== TH FLOW =====================================================================
  0 2r: 3.77E-13 2x: 0.00E+00 2u: 0.00E+00 ir: 1.80E-14 iu: 0.00E+00 rsn:   0
  1 2r: 3.74E-13 2x: 6.36E+07 2u: 1.35E-08 ir: 1.72E-14 iu: 6.35E-10 rsn: itol_upd
 Step     51 Time=  1.95000E+00 Dt=  5.00000E-02 [y] snes_conv_reason:   11
  newton =   1 [      52] linear =   134 [      6266] cuts =  0 [   0]
  --> max chng: dpmx=   5.8208E-10 dtmpmx=   1.2596E-10

== TH FLOW =====================================================================
  0 2r: 3.71E-13 2x: 0.00E+00 2u: 0.00E+00 ir: 1.71E-14 iu: 0.00E+00 rsn:   0
  1 2r: 3.72E-13 2x: 6.36E+07 2u: 9.86E-09 ir: 1.90E-14 iu: 4.51E-10 rsn: itol_upd
 Step     52 Time=  2.00000E+00 Dt=  5.00000E-02 [y] snes_conv_reason:   11
  newton =   1 [      53] linear =   112 [      6378] cuts =  0 [   0]
  --> max chng: dpmx=   4.6566E-10 dtmpmx=   1.0307E-10

== TH FLOW =====================================================================
  0 2r: 3.69E-13 2x: 0.00E+00 2u: 0.00E+00 ir: 1.88E-14 iu: 0.00E+00 rsn:   0
  1 2r: 3.72E-13 2x: 6.36E+07 2u: 1.11E-08 ir: 1.76E-14 iu: 5.24E-10 rsn: itol_upd
 Step     53 Time=  2.05000E+00 Dt=  5.00000E-02 [y] snes_conv_reason:   11
  newton =   1 [      54] linear =   126 [      6504] cuts =  0 [   0]
  --> max chng: dpmx=   5.8208E-10 dtmpmx=   1.1275E-10

== TH FLOW =====================================================================
  0 2r: 3.69E-13 2x: 0.00E+00 2u: 0.00E+00 ir: 1.74E-14 iu: 0.00E+00 rsn:   0
  1 2r: 3.72E-13 2x: 6.36E+07 2u: 8.44E-09 ir: 1.87E-14 iu: 3.80E-10 rsn: itol_upd
 Step     54 Time=  2.10000E+00 Dt=  5.00000E-02 [y] snes_conv_reason:   11
  newton =   1 [      55] linear =   104 [      6608] cuts =  0 [   0]
  --> max chng: dpmx=   3.4925E-10 dtmpmx=   9.7833E-11

== TH FLOW =====================================================================
  0 2r: 3.68E-13 2x: 0.00E+00 2u: 0.00E+00 ir: 1.87E-14 iu: 0.00E+00 rsn:   0
  1 2r: 3.72E-13 2x: 6.36E+07 2u: 1.01E-08 ir: 1.74E-14 iu: 4.56E-10 rsn: itol_upd
 Step     55 Time=  2.15000E+00 Dt=  5.00000E-02 [y] snes_conv_reason:   11
  newton =   1 [      56] linear =   121 [      6729] cuts =  0 [   0]
  --> max chng: dpmx=   4.6566E-10 dtmpmx=   1.0207E-10

== TH FLOW =====================================================================
  0 2r: 3.69E-13 2x: 0.00E+00 2u: 0.00E+00 ir: 1.72E-14 iu: 0.00E+00 rsn:   0
  1 2r: 3.81E-13 2x: 6.36E+07 2u: 8.42E-09 ir: 1.81E-14 iu: 3.96E-10 rsn: itol_upd
 Step     56 Time=  2.20000E+00 Dt=  5.00000E-02 [y] snes_conv_reason:   11
  newton =   1 [      57] linear =   131 [      6860] cuts =  0 [   0]
  --> max chng: dpmx=   3.4925E-10 dtmpmx=   1.0627E-10

== TH FLOW =====================================================================
  0 2r: 3.78E-13 2x: 0.00E+00 2u: 0.00E+00 ir: 1.79E-14 iu: 0.00E+00 rsn:   0
  1 2r: 3.76E-13 2x: 6.36E+07 2u: 1.21E-08 ir: 2.04E-14 iu: 4.78E-10 rsn: itol_upd
 Step     57 Time=  2.25000E+00 Dt=  5.00000E-02 [y] snes_conv_reason:   11
  newton =   1 [      58] linear =   131 [      6991] cuts =  0 [   0]
  --> max chng: dpmx=   4.6566E-10 dtmpmx=   1.0185E-10

== TH FLOW =====================================================================
  0 2r: 3.72E-13 2x: 0.00E+00 2u: 0.00E+00 ir: 2.03E-14 iu: 0.00E+00 rsn:   0
  1 2r: 3.68E-13 2x: 6.36E+07 2u: 1.36E-08 ir: 1.92E-14 iu: 5.78E-10 rsn: itol_upd
 Step     58 Time=  2.30000E+00 Dt=  5.00000E-02 [y] snes_conv_reason:   11
  newton =   1 [      59] linear =   131 [      7122] cuts =  0 [   0]
  --> max chng: dpmx=   5.8208E-10 dtmpmx=   1.1128E-10

== TH FLOW =====================================================================
  0 2r: 3.65E-13 2x: 0.00E+00 2u: 0.00E+00 ir: 1.91E-14 iu: 0.00E+00 rsn:   0
  1 2r: 3.74E-13 2x: 6.36E+07 2u: 8.12E-09 ir: 1.84E-14 iu: 4.06E-10 rsn: itol_upd
 Step     59 Time=  2.35000E+00 Dt=  5.00000E-02 [y] snes_conv_reason:   11
  newton =   1 [      60] linear =   128 [      7250] cuts =  0 [   0]
  --> max chng: dpmx=   3.4925E-10 dtmpmx=   1.1609E-10

== TH FLOW =====================================================================
  0 2r: 3.71E-13 2x: 0.00E+00 2u: 0.00E+00 ir: 1.83E-14 iu: 0.00E+00 rsn:   0
  1 2r: 3.75E-13 2x: 6.36E+07 2u: 9.88E-09 ir: 1.88E-14 iu: 4.79E-10 rsn: itol_upd
 Step     60 Time=  2.40000E+00 Dt=  5.00000E-02 [y] snes_conv_reason:   11
  newton =   1 [      61] linear =    69 [      7319] cuts =  0 [   0]
  --> max chng: dpmx=   4.6566E-10 dtmpmx=   1.1335E-10

== TH FLOW =====================================================================
  0 2r: 3.72E-13 2x: 0.00E+00 2u: 0.00E+00 ir: 1.85E-14 iu: 0.00E+00 rsn:   0
  1 2r: 3.72E-13 2x: 6.36E+07 2u: 1.43E-08 ir: 1.82E-14 iu: 5.97E-10 rsn: itol_upd
 Step     61 Time=  2.45000E+00 Dt=  5.00000E-02 [y] snes_conv_reason:   11
  newton =   1 [      62] linear =   102 [      7421] cuts =  0 [   0]
  --> max chng: dpmx=   5.8208E-10 dtmpmx=   1.1276E-10

== TH FLOW =====================================================================
  0 2r: 3.69E-13 2x: 0.00E+00 2u: 0.00E+00 ir: 1.79E-14 iu: 0.00E+00 rsn:   0
  1 2r: 3.69E-13 2x: 6.36E+07 2u: 1.49E-08 ir: 1.91E-14 iu: 5.73E-10 rsn: itol_upd
 Step     62 Time=  2.50000E+00 Dt=  5.00000E-02 [y] snes_conv_reason:   11
  newton =   1 [      63] linear =   123 [      7544] cuts =  0 [   0]
  --> max chng: dpmx=   5.8208E-10 dtmpmx=   1.0201E-10

== TH FLOW =====================================================================
  0 2r: 3.66E-13 2x: 0.00E+00 2u: 0.00E+00 ir: 1.89E-14 iu: 0.00E+00 rsn:   0
  1 2r: 3.75E-13 2x: 6.36E+07 2u: 1.55E-08 ir: 1.79E-14 iu: 7.26E-10 rsn: itol_upd
 Step     63 Time=  2.55000E+00 Dt=  5.00000E-02 [y] snes_conv_reason:   11
  newton =   1 [      64] linear =   122 [      7666] cuts =  0 [   0]
  --> max chng: dpmx=   6.9849E-10 dtmpmx=   1.0832E-10

== TH FLOW =====================================================================
  0 2r: 3.71E-13 2x: 0.00E+00 2u: 0.00E+00 ir: 1.77E-14 iu: 0.00E+00 rsn:   0
  1 2r: 3.71E-13 2x: 6.36E+07 2u: 1.19E-08 ir: 1.68E-14 iu: 5.15E-10 rsn: itol_upd
 Step     64 Time=  2.60000E+00 Dt=  5.00000E-02 [y] snes_conv_reason:   11
  newton =   1 [      65] linear =   112 [      7778] cuts =  0 [   0]
  --> max chng: dpmx=   4.6566E-10 dtmpmx=   1.0759E-10

== TH FLOW =====================================================================
  0 2r: 3.68E-13 2x: 0.00E+00 2u: 0.00E+00 ir: 1.67E-14 iu: 0.00E+00 rsn:   0
  1 2r: 3.80E-13 2x: 6.36E+07 2u: 1.04E-08 ir: 1.82E-14 iu: 4.34E-10 rsn: itol_upd
 Step     65 Time=  2.65000E+00 Dt=  5.00000E-02 [y] snes_conv_reason:   11
  newton =   1 [      66] linear =   123 [      7901] cuts =  0 [   0]
  --> max chng: dpmx=   4.6566E-10 dtmpmx=   1.0194E-10

== TH FLOW =====================================================================
  0 2r: 3.77E-13 2x: 0.00E+00 2u: 0.00E+00 ir: 1.80E-14 iu: 0.00E+00 rsn:   0
  1 2r: 3.72E-13 2x: 6.36E+07 2u: 9.50E-09 ir: 1.72E-14 iu: 4.81E-10 rsn: itol_upd
 Step     66 Time=  2.70000E+00 Dt=  5.00000E-02 [y] snes_conv_reason:   11
  newton =   1 [      67] linear =   111 [      8012] cuts =  0 [   0]
  --> max chng: dpmx=   4.6566E-10 dtmpmx=   1.0374E-10

== TH FLOW =====================================================================
  0 2r: 3.69E-13 2x: 0.00E+00 2u: 0.00E+00 ir: 1.69E-14 iu: 0.00E+00 rsn:   0
  1 2r: 3.72E-13 2x: 6.36E+07 2u: 1.06E-08 ir: 2.03E-14 iu: 4.67E-10 rsn: itol_upd
 Step     67 Time=  2.75000E+00 Dt=  5.00000E-02 [y] snes_conv_reason:   11
  newton =   1 [      68] linear =   126 [      8138] cuts =  0 [   0]
  --> max chng: dpmx=   4.6566E-10 dtmpmx=   1.1464E-10

== TH FLOW =====================================================================
  0 2r: 3.69E-13 2x: 0.00E+00 2u: 0.00E+00 ir: 2.01E-14 iu: 0.00E+00 rsn:   0
  1 2r: 3.76E-13 2x: 6.36E+07 2u: 1.55E-08 ir: 1.98E-14 iu: 6.46E-10 rsn: itol_upd
 Step     68 Time=  2.80000E+00 Dt=  5.00000E-02 [y] snes_conv_reason:   11
  newton =   1 [      69] linear =   108 [      8246] cuts =  0 [   0]
  --> max chng: dpmx=   6.9849E-10 dtmpmx=   1.1266E-10

== TH FLOW =====================================================================
  0 2r: 3.73E-13 2x: 0.00E+00 2u: 0.00E+00 ir: 1.96E-14 iu: 0.00E+00 rsn:   0
  1 2r: 3.71E-13 2x: 6.36E+07 2u: 7.71E-09 ir: 1.64E-14 iu: 3.56E-10 rsn: itol_upd
 Step     69 Time=  2.85000E+00 Dt=  5.00000E-02 [y] snes_conv_reason:   11
  newton =   1 [      70] linear =   101 [      8347] cuts =  0 [   0]
  --> max chng: dpmx=   3.4925E-10 dtmpmx=   1.0653E-10

== TH FLOW =====================================================================
  0 2r: 3.67E-13 2x: 0.00E+00 2u: 0.00E+00 ir: 1.62E-14 iu: 0.00E+00 rsn:   0
  1 2r: 3.72E-13 2x: 6.36E+07 2u: 8.30E-09 ir: 1.92E-14 iu: 4.08E-10 rsn: itol_upd
 Step     70 Time=  2.90000E+00 Dt=  5.00000E-02 [y] snes_conv_reason:   11
  newton =   1 [      71] linear =   130 [      8477] cuts =  0 [   0]
  --> max chng: dpmx=   4.6566E-10 dtmpmx=   1.0835E-10

== TH FLOW =====================================================================
  0 2r: 3.69E-13 2x: 0.00E+00 2u: 0.00E+00 ir: 1.91E-14 iu: 0.00E+00 rsn:   0
  1 2r: 3.73E-13 2x: 6.36E+07 2u: 1.05E-08 ir: 1.76E-14 iu: 4.26E-10 rsn: itol_upd
 Step     71 Time=  2.95000E+00 Dt=  5.00000E-02 [y] snes_conv_reason:   11
  newton =   1 [      72] linear =   125 [      8602] cuts =  0 [   0]
  --> max chng: dpmx=   4.6566E-10 dtmpmx=   1.0666E-10

== TH FLOW =====================================================================
  0 2r: 3.69E-13 2x: 0.00E+00 2u: 0.00E+00 ir: 1.75E-14 iu: 0.00E+00 rsn:   0
  1 2r: 3.68E-13 2x: 6.36E+07 2u: 1.05E-08 ir: 2.42E-14 iu: 4.74E-10 rsn: itol_upd
 Step     72 Time=  3.00000E+00 Dt=  5.00000E-02 [y] snes_conv_reason:   11
  newton =   1 [      73] linear =   115 [      8717] cuts =  0 [   0]
  --> max chng: dpmx=   4.6566E-10 dtmpmx=   1.1829E-10

== TH FLOW =====================================================================
  0 2r: 3.65E-13 2x: 0.00E+00 2u: 0.00E+00 ir: 2.39E-14 iu: 0.00E+00 rsn:   0
  1 2r: 3.74E-13 2x: 6.36E+07 2u: 9.63E-09 ir: 1.82E-14 iu: 4.39E-10 rsn: itol_upd
 Step     73 Time=  3.05000E+00 Dt=  5.00000E-02 [y] snes_conv_reason:   11
  newton =   1 [      74] linear =   129 [      8846] cuts =  0 [   0]
  --> max chng: dpmx=   4.6566E-10 dtmpmx=   1.2754E-10

== TH FLOW =====================================================================
  0 2r: 3.71E-13 2x: 0.00E+00 2u: 0.00E+00 ir: 1.80E-14 iu: 0.00E+00 rsn:   0
  1 2r: 3.81E-13 2x: 6.36E+07 2u: 1.22E-08 ir: 1.79E-14 iu: 4.65E-10 rsn: itol_upd
 Step     74 Time=  3.10000E+00 Dt=  5.00000E-02 [y] snes_conv_reason:   11
  newton =   1 [      75] linear =   124 [      8970] cuts =  0 [   0]
  --> max chng: dpmx=   4.6566E-10 dtmpmx=   1.0994E-10

== TH FLOW =====================================================================
  0 2r: 3.78E-13 2x: 0.00E+00 2u: 0.00E+00 ir: 1.78E-14 iu: 0.00E+00 rsn:   0
  1 2r: 3.74E-13 2x: 6.36E+07 2u: 1.08E-08 ir: 1.98E-14 iu: 4.39E-10 rsn: itol_upd
 Step     75 Time=  3.15000E+00 Dt=  5.00000E-02 [y] snes_conv_reason:   11
  newton =   1 [      76] linear =   118 [      9088] cuts =  0 [   0]
  --> max chng: dpmx=   4.6566E-10 dtmpmx=   1.2314E-10

== TH FLOW =====================================================================
  0 2r: 3.71E-13 2x: 0.00E+00 2u: 0.00E+00 ir: 1.96E-14 iu: 0.00E+00 rsn:   0
  1 2r: 3.71E-13 2x: 6.36E+07 2u: 9.97E-09 ir: 1.82E-14 iu: 4.21E-10 rsn: itol_upd
 Step     76 Time=  3.20000E+00 Dt=  5.00000E-02 [y] snes_conv_reason:   11
  newton =   1 [      77] linear =   127 [      9215] cuts =  0 [   0]
  --> max chng: dpmx=   4.6566E-10 dtmpmx=   1.1492E-10

== TH FLOW =====================================================================
  0 2r: 3.68E-13 2x: 0.00E+00 2u: 0.00E+00 ir: 1.79E-14 iu: 0.00E+00 rsn:   0
  1 2r: 3.72E-13 2x: 6.36E+07 2u: 1.16E-08 ir: 1.92E-14 iu: 5.24E-10 rsn: itol_upd
 Step     77 Time=  3.25000E+00 Dt=  5.00000E-02 [y] snes_conv_reason:   11
  newton =   1 [      78] linear =   121 [      9336] cuts =  0 [   0]
  --> max chng: dpmx=   4.6566E-10 dtmpmx=   9.6545E-11

== TH FLOW =====================================================================
  0 2r: 3.68E-13 2x: 0.00E+00 2u: 0.00E+00 ir: 1.89E-14 iu: 0.00E+00 rsn:   0
  1 2r: 3.69E-13 2x: 6.36E+07 2u: 1.42E-08 ir: 1.77E-14 iu: 6.93E-10 rsn: itol_upd
 Step     78 Time=  3.30000E+00 Dt=  5.00000E-02 [y] snes_conv_reason:   11
  newton =   1 [      79] linear =   130 [      9466] cuts =  0 [   0]
  --> max chng: dpmx=   6.9849E-10 dtmpmx=   9.8703E-11

== TH FLOW =====================================================================
  0 2r: 3.66E-13 2x: 0.00E+00 2u: 0.00E+00 ir: 1.76E-14 iu: 0.00E+00 rsn:   0
  1 2r: 3.67E-13 2x: 6.36E+07 2u: 9.16E-09 ir: 1.78E-14 iu: 4.90E-10 rsn: itol_upd
 Step     79 Time=  3.35000E+00 Dt=  5.00000E-02 [y] snes_conv_reason:   11
  newton =   1 [      80] linear =   131 [      9597] cuts =  0 [   0]
  --> max chng: dpmx=   4.6566E-10 dtmpmx=   1.0444E-10

== TH FLOW =====================================================================
  0 2r: 3.64E-13 2x: 0.00E+00 2u: 0.00E+00 ir: 1.77E-14 iu: 0.00E+00 rsn:   0
  1 2r: 3.69E-13 2x: 6.36E+07 2u: 1.02E-08 ir: 1.79E-14 iu: 5.24E-10 rsn: itol_upd
 Step     80 Time=  3.40000E+00 Dt=  5.00000E-02 [y] snes_conv_reason:   11
  newton =   1 [      81] linear =   127 [      9724] cuts =  0 [   0]
  --> max chng: dpmx=   4.6566E-10 dtmpmx=   1.1196E-10

== TH FLOW =====================================================================
  0 2r: 3.65E-13 2x: 0.00E+00 2u: 0.00E+00 ir: 1.78E-14 iu: 0.00E+00 rsn:   0
  1 2r: 3.75E-13 2x: 6.36E+07 2u: 1.10E-08 ir: 1.79E-14 iu: 4.78E-10 rsn: itol_upd
 Step     81 Time=  3.45000E+00 Dt=  5.00000E-02 [y] snes_conv_reason:   11
  newton =   1 [      82] linear =   135 [      9859] cuts =  0 [   0]
  --> max chng: dpmx=   4.6566E-10 dtmpmx=   1.0484E-10

== TH FLOW =====================================================================
  0 2r: 3.72E-13 2x: 0.00E+00 2u: 0.00E+00 ir: 1.77E-14 iu: 0.00E+00 rsn:   0
  1 2r: 3.71E-13 2x: 6.36E+07 2u: 9.30E-09 ir: 1.90E-14 iu: 4.96E-10 rsn: itol_upd
 Step     82 Time=  3.50000E+00 Dt=  5.00000E-02 [y] snes_conv_reason:   11
  newton =   1 [      83] linear =   118 [      9977] cuts =  0 [   0]
  --> max chng: dpmx=   4.6566E-10 dtmpmx=   1.1112E-10

== TH FLOW =====================================================================
  0 2r: 3.68E-13 2x: 0.00E+00 2u: 0.00E+00 ir: 1.89E-14 iu: 0.00E+00 rsn:   0
  1 2r: 3.74E-13 2x: 6.36E+07 2u: 8.41E-09 ir: 1.90E-14 iu: 4.08E-10 rsn: itol_upd
 Step     83 Time=  3.55000E+00 Dt=  5.00000E-02 [y] snes_conv_reason:   11
  newton =   1 [      84] linear =   109 [     10086] cuts =  0 [   0]
  --> max chng: dpmx=   4.6566E-10 dtmpmx=   1.0366E-10

== TH FLOW =====================================================================
  0 2r: 3.70E-13 2x: 0.00E+00 2u: 0.00E+00 ir: 1.90E-14 iu: 0.00E+00 rsn:   0
  1 2r: 3.72E-13 2x: 6.36E+07 2u: 1.45E-08 ir: 1.94E-14 iu: 6.41E-10 rsn: itol_upd
 Step     84 Time=  3.60000E+00 Dt=  5.00000E-02 [y] snes_conv_reason:   11
  newton =   1 [      85] linear =   116 [     10202] cuts =  0 [   0]
  --> max chng: dpmx=   6.9849E-10 dtmpmx=   9.8762E-11

== TH FLOW =====================================================================
  0 2r: 3.69E-13 2x: 0.00E+00 2u: 0.00E+00 ir: 1.93E-14 iu: 0.00E+00 rsn:   0
  1 2r: 3.77E-13 2x: 6.36E+07 2u: 1.04E-08 ir: 1.90E-14 iu: 5.90E-10 rsn: itol_upd
 Step     85 Time=  3.65000E+00 Dt=  5.00000E-02 [y] snes_conv_reason:   11
  newton =   1 [      86] linear =   117 [     10319] cuts =  0 [   0]
  --> max chng: dpmx=   5.8208E-10 dtmpmx=   1.0944E-10

== TH FLOW =====================================================================
  0 2r: 3.74E-13 2x: 0.00E+00 2u: 0.00E+00 ir: 1.86E-14 iu: 0.00E+00 rsn:   0
  1 2r: 3.83E-13 2x: 6.36E+07 2u: 9.47E-09 ir: 2.01E-14 iu: 4.44E-10 rsn: itol_upd
 Step     86 Time=  3.70000E+00 Dt=  5.00000E-02 [y] snes_conv_reason:   11
  newton =   1 [      87] linear =   122 [     10441] cuts =  0 [   0]
  --> max chng: dpmx=   4.6566E-10 dtmpmx=   9.7666E-11

== TH FLOW =====================================================================
  0 2r: 3.79E-13 2x: 0.00E+00 2u: 0.00E+00 ir: 1.98E-14 iu: 0.00E+00 rsn:   0
  1 2r: 3.75E-13 2x: 6.36E+07 2u: 8.20E-09 ir: 1.78E-14 iu: 4.09E-10 rsn: itol_upd
 Step     87 Time=  3.75000E+00 Dt=  5.00000E-02 [y] snes_conv_reason:   11
  newton =   1 [      88] linear =   128 [     10569] cuts =  0 [   0]
  --> max chng: dpmx=   4.6566E-10 dtmpmx=   1.2212E-10

== TH FLOW =====================================================================
  0 2r: 3.72E-13 2x: 0.00E+00 2u: 0.00E+00 ir: 1.77E-14 iu: 0.00E+00 rsn:   0
  1 2r: 3.76E-13 2x: 6.36E+07 2u: 1.58E-08 ir: 1.95E-14 iu: 6.86E-10 rsn: itol_upd
 Step     88 Time=  3.80000E+00 Dt=  5.00000E-02 [y] snes_conv_reason:   11
  newton =   1 [      89] linear =   135 [     10704] cuts =  0 [   0]
  --> max chng: dpmx=   6.9849E-10 dtmpmx=   1.1297E-10

== TH FLOW =====================================================================
  0 2r: 3.72E-13 2x: 0.00E+00 2u: 0.00E+00 ir: 1.92E-14 iu: 0.00E+00 rsn:   0
  1 2r: 3.73E-13 2x: 6.36E+07 2u: 1.20E-08 ir: 1.74E-14 iu: 5.09E-10 rsn: itol_upd
 Step     89 Time=  3.85000E+00 Dt=  5.00000E-02 [y] snes_conv_reason:   11
  newton =   1 [      90] linear =   128 [     10832] cuts =  0 [   0]
  --> max chng: dpmx=   4.6566E-10 dtmpmx=   1.0296E-10

== TH FLOW =====================================================================
  0 2r: 3.69E-13 2x: 0.00E+00 2u: 0.00E+00 ir: 1.73E-14 iu: 0.00E+00 rsn:   0
  1 2r: 3.78E-13 2x: 6.36E+07 2u: 8.71E-09 ir: 1.70E-14 iu: 4.23E-10 rsn: itol_upd
 Step     90 Time=  3.90000E+00 Dt=  5.00000E-02 [y] snes_conv_reason:   11
  newton =   1 [      91] linear =    94 [     10926] cuts =  0 [   0]
  --> max chng: dpmx=   4.6566E-10 dtmpmx=   1.0121E-10

== TH FLOW =====================================================================
  0 2r: 3.75E-13 2x: 0.00E+00 2u: 0.00E+00 ir: 1.68E-14 iu: 0.00E+00 rsn:   0
  1 2r: 3.78E-13 2x: 6.36E+07 2u: 8.69E-09 ir: 1.94E-14 iu: 4.27E-10 rsn: itol_upd
 Step     91 Time=  3.95000E+00 Dt=  5.00000E-02 [y] snes_conv_reason:   11
  newton =   1 [      92] linear =    87 [     11013] cuts =  0 [   0]
  --> max chng: dpmx=   4.6566E-10 dtmpmx=   1.1717E-10

== TH FLOW =====================================================================
  0 2r: 3.75E-13 2x: 0.00E+00 2u: 0.00E+00 ir: 1.94E-14 iu: 0.00E+00 rsn:   0
  1 2r: 3.68E-13 2x: 6.36E+07 2u: 1.04E-08 ir: 1.93E-14 iu: 4.83E-10 rsn: itol_upd
 Step     92 Time=  4.00000E+00 Dt=  5.00000E-02 [y] snes_conv_reason:   11
  newton =   1 [      93] linear =   115 [     11128] cuts =  0 [   0]
  --> max chng: dpmx=   4.6566E-10 dtmpmx=   1.1427E-10

== TH FLOW =====================================================================
  0 2r: 3.64E-13 2x: 0.00E+00 2u: 0.00E+00 ir: 1.91E-14 iu: 0.00E+00 rsn:   0
  1 2r: 3.72E-13 2x: 6.36E+07 2u: 1.11E-08 ir: 2.21E-14 iu: 5.76E-10 rsn: itol_upd
 Step     93 Time=  4.05000E+00 Dt=  5.00000E-02 [y] snes_conv_reason:   11
  newton =   1 [      94] linear =   134 [     11262] cuts =  0 [   0]
  --> max chng: dpmx=   5.8208E-10 dtmpmx=   1.0842E-10

== TH FLOW =====================================================================
  0 2r: 3.69E-13 2x: 0.00E+00 2u: 0.00E+00 ir: 2.19E-14 iu: 0.00E+00 rsn:   0
  1 2r: 3.72E-13 2x: 6.36E+07 2u: 9.07E-09 ir: 1.82E-14 iu: 3.97E-10 rsn: itol_upd
 Step     94 Time=  4.10000E+00 Dt=  5.00000E-02 [y] snes_conv_reason:   11
  newton =   1 [      95] linear =   107 [     11369] cuts =  0 [   0]
  --> max chng: dpmx=   3.4925E-10 dtmpmx=   1.0353E-10

== TH FLOW =====================================================================
  0 2r: 3.69E-13 2x: 0.00E+00 2u: 0.00E+00 ir: 1.80E-14 iu: 0.00E+00 rsn:   0
  1 2r: 3.66E-13 2x: 6.36E+07 2u: 8.28E-09 ir: 2.06E-14 iu: 3.65E-10 rsn: itol_upd
 Step     95 Time=  4.15000E+00 Dt=  5.00000E-02 [y] snes_conv_reason:   11
  newton =   1 [      96] linear =   111 [     11480] cuts =  0 [   0]
  --> max chng: dpmx=   3.4925E-10 dtmpmx=   1.0501E-10

== TH FLOW =====================================================================
  0 2r: 3.62E-13 2x: 0.00E+00 2u: 0.00E+00 ir: 2.05E-14 iu: 0.00E+00 rsn:   0
  1 2r: 3.74E-13 2x: 6.36E+07 2u: 1.22E-08 ir: 1.98E-14 iu: 5.51E-10 rsn: itol_upd
 Step     96 Time=  4.20000E+00 Dt=  5.00000E-02 [y] snes_conv_reason:   11
  newton =   1 [      97] linear =   126 [     11606] cuts =  0 [   0]
  --> max chng: dpmx=   5.8208E-10 dtmpmx=   1.2683E-10

== TH FLOW =====================================================================
  0 2r: 3.71E-13 2x: 0.00E+00 2u: 0.00E+00 ir: 1.96E-14 iu: 0.00E+00 rsn:   0
  1 2r: 3.72E-13 2x: 6.36E+07 2u: 1.05E-08 ir: 1.82E-14 iu: 4.55E-10 rsn: itol_upd
 Step     97 Time=  4.25000E+00 Dt=  5.00000E-02 [y] snes_conv_reason:   11
  newton =   1 [      98] linear =   135 [     11741] cuts =  0 [   0]
  --> max chng: dpmx=   4.6566E-10 dtmpmx=   9.9519E-11

== TH FLOW =====================================================================
  0 2r: 3.68E-13 2x: 0.00E+00 2u: 0.00E+00 ir: 1.81E-14 iu: 0.00E+00 rsn:   0
  1 2r: 3.80E-13 2x: 6.36E+07 2u: 9.47E-09 ir: 2.01E-14 iu: 3.95E-10 rsn: itol_upd
 Step     98 Time=  4.30000E+00 Dt=  5.00000E-02 [y] snes_conv_reason:   11
  newton =   1 [      99] linear =   122 [     11863] cuts =  0 [   0]
  --> max chng: dpmx=   3.4925E-10 dtmpmx=   1.0779E-10

== TH FLOW =====================================================================
  0 2r: 3.76E-13 2x: 0.00E+00 2u: 0.00E+00 ir: 1.98E-14 iu: 0.00E+00 rsn:   0
  1 2r: 3.79E-13 2x: 6.36E+07 2u: 1.04E-08 ir: 1.82E-14 iu: 4.37E-10 rsn: itol_upd
 Step     99 Time=  4.35000E+00 Dt=  5.00000E-02 [y] snes_conv_reason:   11
  newton =   1 [     100] linear =   105 [     11968] cuts =  0 [   0]
  --> max chng: dpmx=   4.6566E-10 dtmpmx=   1.0294E-10

== TH FLOW =====================================================================
  0 2r: 3.75E-13 2x: 0.00E+00 2u: 0.00E+00 ir: 1.80E-14 iu: 0.00E+00 rsn:   0
  1 2r: 3.72E-13 2x: 6.36E+07 2u: 1.19E-08 ir: 2.15E-14 iu: 5.40E-10 rsn: itol_upd
 Step    100 Time=  4.40000E+00 Dt=  5.00000E-02 [y] snes_conv_reason:   11
  newton =   1 [     101] linear =   129 [     12097] cuts =  0 [   0]
  --> max chng: dpmx=   5.8208E-10 dtmpmx=   1.0121E-10

== TH FLOW =====================================================================
  0 2r: 3.69E-13 2x: 0.00E+00 2u: 0.00E+00 ir: 2.13E-14 iu: 0.00E+00 rsn:   0
  1 2r: 3.71E-13 2x: 6.36E+07 2u: 9.96E-09 ir: 1.88E-14 iu: 4.45E-10 rsn: itol_upd
 Step    101 Time=  4.45000E+00 Dt=  5.00000E-02 [y] snes_conv_reason:   11
  newton =   1 [     102] linear =   131 [     12228] cuts =  0 [   0]
  --> max chng: dpmx=   4.6566E-10 dtmpmx=   1.1990E-10

== TH FLOW =====================================================================
  0 2r: 3.67E-13 2x: 0.00E+00 2u: 0.00E+00 ir: 1.86E-14 iu: 0.00E+00 rsn:   0
  1 2r: 3.78E-13 2x: 6.36E+07 2u: 9.13E-09 ir: 2.14E-14 iu: 3.96E-10 rsn: itol_upd
 Step    102 Time=  4.50000E+00 Dt=  5.00000E-02 [y] snes_conv_reason:   11
  newton =   1 [     103] linear =   110 [     12338] cuts =  0 [   0]
  --> max chng: dpmx=   3.4925E-10 dtmpmx=   1.0801E-10

== TH FLOW =====================================================================
  0 2r: 3.74E-13 2x: 0.00E+00 2u: 0.00E+00 ir: 2.14E-14 iu: 0.00E+00 rsn:   0
  1 2r: 3.75E-13 2x: 6.36E+07 2u: 9.09E-09 ir: 1.75E-14 iu: 4.58E-10 rsn: itol_upd
 Step    103 Time=  4.55000E+00 Dt=  5.00000E-02 [y] snes_conv_reason:   11
  newton =   1 [     104] linear =   114 [     12452] cuts =  0 [   0]
  --> max chng: dpmx=   4.6566E-10 dtmpmx=   1.1784E-10

== TH FLOW =====================================================================
  0 2r: 3.71E-13 2x: 0.00E+00 2u: 0.00E+00 ir: 1.74E-14 iu: 0.00E+00 rsn:   0
  1 2r: 3.79E-13 2x: 6.36E+07 2u: 1.20E-08 ir: 1.87E-14 iu: 5.56E-10 rsn: itol_upd
 Step    104 Time=  4.60000E+00 Dt=  5.00000E-02 [y] snes_conv_reason:   11
  newton =   1 [     105] linear =   117 [     12569] cuts =  0 [   0]
  --> max chng: dpmx=   5.8208E-10 dtmpmx=   9.8238E-11

== TH FLOW =====================================================================
  0 2r: 3.75E-13 2x: 0.00E+00 2u: 0.00E+00 ir: 1.86E-14 iu: 0.00E+00 rsn:   0
  1 2r: 3.70E-13 2x: 6.36E+07 2u: 8.66E-09 ir: 2.04E-14 iu: 4.12E-10 rsn: itol_upd
 Step    105 Time=  4.65000E+00 Dt=  5.00000E-02 [y] snes_conv_reason:   11
  newton =   1 [     106] linear =    79 [     12648] cuts =  0 [   0]
  --> max chng: dpmx=   4.6566E-10 dtmpmx=   1.2778E-10

== TH FLOW =====================================================================
  0 2r: 3.67E-13 2x: 0.00E+00 2u: 0.00E+00 ir: 2.03E-14 iu: 0.00E+00 rsn:   0
  1 2r: 3.69E-13 2x: 6.36E+07 2u: 8.38E-09 ir: 1.72E-14 iu: 4.60E-10 rsn: itol_upd
 Step    106 Time=  4.70000E+00 Dt=  5.00000E-02 [y] snes_conv_reason:   11
  newton =   1 [     107] linear =   124 [     12772] cuts =  0 [   0]
  --> max chng: dpmx=   4.6566E-10 dtmpmx=   1.0000E-10

== TH FLOW =====================================================================
  0 2r: 3.65E-13 2x: 0.00E+00 2u: 0.00E+00 ir: 1.70E-14 iu: 0.00E+00 rsn:   0
  1 2r: 3.68E-13 2x: 6.36E+07 2u: 1.06E-08 ir: 1.87E-14 iu: 4.78E-10 rsn: itol_upd
 Step    107 Time=  4.75000E+00 Dt=  5.00000E-02 [y] snes_conv_reason:   11
  newton =   1 [     108] linear =    90 [     12862] cuts =  0 [   0]
  --> max chng: dpmx=   4.6566E-10 dtmpmx=   1.0555E-10

== TH FLOW =====================================================================
  0 2r: 3.64E-13 2x: 0.00E+00 2u: 0.00E+00 ir: 1.87E-14 iu: 0.00E+00 rsn:   0
  1 2r: 3.67E-13 2x: 6.36E+07 2u: 1.39E-08 ir: 1.90E-14 iu: 6.25E-10 rsn: itol_upd
 Step    108 Time=  4.80000E+00 Dt=  5.00000E-02 [y] snes_conv_reason:   11
  newton =   1 [     109] linear =   120 [     12982] cuts =  0 [   0]
  --> max chng: dpmx=   5.8208E-10 dtmpmx=   1.0578E-10

== TH FLOW =====================================================================
  0 2r: 3.64E-13 2x: 0.00E+00 2u: 0.00E+00 ir: 1.87E-14 iu: 0.00E+00 rsn:   0
  1 2r: 3.74E-13 2x: 6.36E+07 2u: 9.48E-09 ir: 2.17E-14 iu: 4.55E-10 rsn: itol_upd
 Step    109 Time=  4.85000E+00 Dt=  5.00000E-02 [y] snes_conv_reason:   11
  newton =   1 [     110] linear =    95 [     13077] cuts =  0 [   0]
  --> max chng: dpmx=   4.6566E-10 dtmpmx=   1.0766E-10

== TH FLOW =====================================================================
  0 2r: 3.70E-13 2x: 0.00E+00 2u: 0.00E+00 ir: 2.14E-14 iu: 0.00E+00 rsn:   0
  1 2r: 3.61E-13 2x: 6.36E+07 2u: 8.21E-09 ir: 1.84E-14 iu: 3.97E-10 rsn: itol_upd
 Step    110 Time=  4.90000E+00 Dt=  5.00000E-02 [y] snes_conv_reason:   11
  newton =   1 [     111] linear =   120 [     13197] cuts =  0 [   0]
  --> max chng: dpmx=   3.4925E-10 dtmpmx=   1.0440E-10

== TH FLOW =====================================================================
  0 2r: 3.58E-13 2x: 0.00E+00 2u: 0.00E+00 ir: 1.82E-14 iu: 0.00E+00 rsn:   0
  1 2r: 3.75E-13 2x: 6.36E+07 2u: 1.26E-08 ir: 1.92E-14 iu: 5.20E-10 rsn: itol_upd
 Step    111 Time=  4.95000E+00 Dt=  5.00000E-02 [y] snes_conv_reason:   11
  newton =   1 [     112] linear =   129 [     13326] cuts =  0 [   0]
  --> max chng: dpmx=   4.6566E-10 dtmpmx=   1.0791E-10

== TH FLOW =====================================================================
  0 2r: 3.72E-13 2x: 0.00E+00 2u: 0.00E+00 ir: 1.89E-14 iu: 0.00E+00 rsn:   0
  1 2r: 3.73E-13 2x: 6.36E+07 2u: 1.16E-08 ir: 1.97E-14 iu: 5.07E-10 rsn: itol_upd
 Step    112 Time=  5.00000E+00 Dt=  5.00000E-02 [y] snes_conv_reason:   11
  newton =   1 [     113] linear =   128 [     13454] cuts =  0 [   0]
  --> max chng: dpmx=   4.6566E-10 dtmpmx=   1.1357E-10

== TH FLOW =====================================================================
  0 2r: 3.70E-13 2x: 0.00E+00 2u: 0.00E+00 ir: 1.95E-14 iu: 0.00E+00 rsn:   0
  1 2r: 3.69E-13 2x: 6.36E+07 2u: 1.09E-08 ir: 1.65E-14 iu: 4.47E-10 rsn: itol_upd
 Step    113 Time=  5.05000E+00 Dt=  5.00000E-02 [y] snes_conv_reason:   11
  newton =   1 [     114] linear =   121 [     13575] cuts =  0 [   0]
  --> max chng: dpmx=   4.6566E-10 dtmpmx=   1.0022E-10

== TH FLOW =====================================================================
  0 2r: 3.66E-13 2x: 0.00E+00 2u: 0.00E+00 ir: 1.65E-14 iu: 0.00E+00 rsn:   0
  1 2r: 3.69E-13 2x: 6.36E+07 2u: 8.39E-09 ir: 1.87E-14 iu: 4.57E-10 rsn: itol_upd
 Step    114 Time=  5.10000E+00 Dt=  5.00000E-02 [y] snes_conv_reason:   11
  newton =   1 [     115] linear =   102 [     13677] cuts =  0 [   0]
  --> max chng: dpmx=   4.6566E-10 dtmpmx=   1.0490E-10

== TH FLOW =====================================================================
  0 2r: 3.65E-13 2x: 0.00E+00 2u: 0.00E+00 ir: 1.85E-14 iu: 0.00E+00 rsn:   0
  1 2r: 3.75E-13 2x: 6.36E+07 2u: 9.84E-09 ir: 1.93E-14 iu: 4.68E-10 rsn: itol_upd
 Step    115 Time=  5.15000E+00 Dt=  5.00000E-02 [y] snes_conv_reason:   11
  newton =   1 [     116] linear =   122 [     13799] cuts =  0 [   0]
  --> max chng: dpmx=   4.6566E-10 dtmpmx=   1.1018E-10

== TH FLOW =====================================================================
  0 2r: 3.71E-13 2x: 0.00E+00 2u: 0.00E+00 ir: 1.92E-14 iu: 0.00E+00 rsn:   0
  1 2r: 3.75E-13 2x: 6.36E+07 2u: 1.17E-08 ir: 1.82E-14 iu: 5.05E-10 rsn: itol_upd
 Step    116 Time=  5.20000E+00 Dt=  5.00000E-02 [y] snes_conv_reason:   11
  newton =   1 [     117] linear =   113 [     13912] cuts =  0 [   0]
  --> max chng: dpmx=   4.6566E-10 dtmpmx=   1.1445E-10

== TH FLOW =====================================================================
  0 2r: 3.72E-13 2x: 0.00E+00 2u: 0.00E+00 ir: 1.81E-14 iu: 0.00E+00 rsn:   0
  1 2r: 3.72E-13 2x: 6.36E+07 2u: 9.97E-09 ir: 1.81E-14 iu: 4.50E-10 rsn: itol_upd
 Step    117 Time=  5.25000E+00 Dt=  5.00000E-02 [y] snes_conv_reason:   11
  newton =   1 [     118] linear =   128 [     14040] cuts =  0 [   0]
  --> max chng: dpmx=   4.6566E-10 dtmpmx=   1.0936E-10

== TH FLOW =====================================================================
  0 2r: 3.69E-13 2x: 0.00E+00 2u: 0.00E+00 ir: 1.80E-14 iu: 0.00E+00 rsn:   0
  1 2r: 3.71E-13 2x: 6.36E+07 2u: 1.05E-08 ir: 1.97E-14 iu: 4.68E-10 rsn: itol_upd
 Step    118 Time=  5.30000E+00 Dt=  5.00000E-02 [y] snes_conv_reason:   11
  newton =   1 [     119] linear =   113 [     14153] cuts =  0 [   0]
  --> max chng: dpmx=   4.6566E-10 dtmpmx=   1.1225E-10

== TH FLOW =====================================================================
  0 2r: 3.68E-13 2x: 0.00E+00 2u: 0.00E+00 ir: 1.95E-14 iu: 0.00E+00 rsn:   0
  1 2r: 3.64E-13 2x: 6.36E+07 2u: 1.48E-08 ir: 1.84E-14 iu: 6.93E-10 rsn: itol_upd
 Step    119 Time=  5.35000E+00 Dt=  5.00000E-02 [y] snes_conv_reason:   11
  newton =   1 [     120] linear =   118 [     14271] cuts =  0 [   0]
  --> max chng: dpmx=   6.9849E-10 dtmpmx=   1.0722E-10

== TH FLOW =====================================================================
  0 2r: 3.61E-13 2x: 0.00E+00 2u: 0.00E+00 ir: 1.82E-14 iu: 0.00E+00 rsn:   0
  1 2r: 3.77E-13 2x: 6.36E+07 2u: 1.60E-08 ir: 1.95E-14 iu: 6.14E-10 rsn: itol_upd
 Step    120 Time=  5.40000E+00 Dt=  5.00000E-02 [y] snes_conv_reason:   11
  newton =   1 [     121] linear =   117 [     14388] cuts =  0 [   0]
  --> max chng: dpmx=   5.8208E-10 dtmpmx=   1.2159E-10

== TH FLOW =====================================================================
  0 2r: 3.74E-13 2x: 0.00E+00 2u: 0.00E+00 ir: 1.93E-14 iu: 0.00E+00 rsn:   0
  1 2r: 3.80E-13 2x: 6.36E+07 2u: 9.31E-09 ir: 2.12E-14 iu: 4.37E-10 rsn: itol_upd
 Step    121 Time=  5.45000E+00 Dt=  5.00000E-02 [y] snes_conv_reason:   11
  newton =   1 [     122] linear =    73 [     14461] cuts =  0 [   0]
  --> max chng: dpmx=   4.6566E-10 dtmpmx=   1.1351E-10

== TH FLOW =====================================================================
  0 2r: 3.77E-13 2x: 0.00E+00 2u: 0.00E+00 ir: 2.10E-14 iu: 0.00E+00 rsn:   0
  1 2r: 3.71E-13 2x: 6.36E+07 2u: 8.63E-09 ir: 1.93E-14 iu: 4.48E-10 rsn: itol_upd
 Step    122 Time=  5.50000E+00 Dt=  5.00000E-02 [y] snes_conv_reason:   11
  newton =   1 [     123] linear =    81 [     14542] cuts =  0 [   0]
  --> max chng: dpmx=   4.6566E-10 dtmpmx=   1.2416E-10

== TH FLOW =====================================================================
  0 2r: 3.68E-13 2x: 0.00E+00 2u: 0.00E+00 ir: 1.90E-14 iu: 0.00E+00 rsn:   0
  1 2r: 3.73E-13 2x: 6.36E+07 2u: 8.88E-09 ir: 1.96E-14 iu: 4.46E-10 rsn: itol_upd
 Step    123 Time=  5.55000E+00 Dt=  5.00000E-02 [y] snes_conv_reason:   11
  newton =   1 [     124] linear =   114 [     14656] cuts =  0 [   0]
  --> max chng: dpmx=   4.6566E-10 dtmpmx=   9.6650E-11

== TH FLOW =====================================================================
  0 2r: 3.70E-13 2x: 0.00E+00 2u: 0.00E+00 ir: 1.96E-14 iu: 0.00E+00 rsn:   0
  1 2r: 3.75E-13 2x: 6.36E+07 2u: 1.13E-08 ir: 1.90E-14 iu: 4.89E-10 rsn: itol_upd
 Step    124 Time=  5.60000E+00 Dt=  5.00000E-02 [y] snes_conv_reason:   11
  newton =   1 [     125] linear =   126 [     14782] cuts =  0 [   0]
  --> max chng: dpmx=   4.6566E-10 dtmpmx=   1.1561E-10

== TH FLOW =====================================================================
  0 2r: 3.72E-13 2x: 0.00E+00 2u: 0.00E+00 ir: 1.88E-14 iu: 0.00E+00 rsn:   0
  1 2r: 3.73E-13 2x: 6.36E+07 2u: 9.25E-09 ir: 2.08E-14 iu: 4.50E-10 rsn: itol_upd
 Step    125 Time=  5.65000E+00 Dt=  5.00000E-02 [y] snes_conv_reason:   11
  newton =   1 [     126] linear =   133 [     14915] cuts =  0 [   0]
  --> max chng: dpmx=   4.6566E-10 dtmpmx=   1.2633E-10

== TH FLOW =====================================================================
  0 2r: 3.69E-13 2x: 0.00E+00 2u: 0.00E+00 ir: 2.07E-14 iu: 0.00E+00 rsn:   0
  1 2r: 3.72E-13 2x: 6.36E+07 2u: 9.13E-09 ir: 1.63E-14 iu: 4.39E-10 rsn: itol_upd
 Step    126 Time=  5.70000E+00 Dt=  5.00000E-02 [y] snes_conv_reason:   11
  newton =   1 [     127] linear =   128 [     15043] cuts =  0 [   0]
  --> max chng: dpmx=   4.6566E-10 dtmpmx=   1.1358E-10

== TH FLOW =====================================================================
  0 2r: 3.68E-13 2x: 0.00E+00 2u: 0.00E+00 ir: 1.64E-14 iu: 0.00E+00 rsn:   0
  1 2r: 3.74E-13 2x: 6.36E+07 2u: 8.41E-09 ir: 1.83E-14 iu: 3.39E-10 rsn: itol_upd
 Step    127 Time=  5.75000E+00 Dt=  5.00000E-02 [y] snes_conv_reason:   11
  newton =   1 [     128] linear =   121 [     15164] cuts =  0 [   0]
  --> max chng: dpmx=   3.4925E-10 dtmpmx=   1.0552E-10

== TH FLOW =====================================================================
  0 2r: 3.71E-13 2x: 0.00E+00 2u: 0.00E+00 ir: 1.82E-14 iu: 0.00E+00 rsn:   0
  1 2r: 3.70E-13 2x: 6.36E+07 2u: 8.21E-09 ir: 1.97E-14 iu: 3.71E-10 rsn: itol_upd
 Step    128 Time=  5.80000E+00 Dt=  5.00000E-02 [y] snes_conv_reason:   11
  newton =   1 [     129] linear =    97 [     15261] cuts =  0 [   0]
  --> max chng: dpmx=   3.4925E-10 dtmpmx=   1.2043E-10

== TH FLOW =====================================================================
  0 2r: 3.66E-13 2x: 0.00E+00 2u: 0.00E+00 ir: 1.95E-14 iu: 0.00E+00 rsn:   0
  1 2r: 3.77E-13 2x: 6.36E+07 2u: 8.63E-09 ir: 1.83E-14 iu: 4.45E-10 rsn: itol_upd
 Step    129 Time=  5.85000E+00 Dt=  5.00000E-02 [y] snes_conv_reason:   11
  newton =   1 [     130] linear =    95 [     15356] cuts =  0 [   0]
  --> max chng: dpmx=   4.6566E-10 dtmpmx=   1.1057E-10

== TH FLOW =====================================================================
  0 2r: 3.74E-13 2x: 0.00E+00 2u: 0.00E+00 ir: 1.80E-14 iu: 0.00E+00 rsn:   0
  1 2r: 3.79E-13 2x: 6.36E+07 2u: 1.11E-08 ir: 1.87E-14 iu: 5.73E-10 rsn: itol_upd
 Step    130 Time=  5.90000E+00 Dt=  5.00000E-02 [y] snes_conv_reason:   11
  newton =   1 [     131] linear =   123 [     15479] cuts =  0 [   0]
  --> max chng: dpmx=   5.8208E-10 dtmpmx=   1.0316E-10

== TH FLOW =====================================================================
  0 2r: 3.75E-13 2x: 0.00E+00 2u: 0.00E+00 ir: 1.85E-14 iu: 0.00E+00 rsn:   0
  1 2r: 3.80E-13 2x: 6.36E+07 2u: 7.79E-09 ir: 1.84E-14 iu: 3.77E-10 rsn: itol_upd
 Step    131 Time=  5.95000E+00 Dt=  5.00000E-02 [y] snes_conv_reason:   11
  newton =   1 [     132] linear =   115 [     15594] cuts =  0 [   0]
  --> max chng: dpmx=   3.4925E-10 dtmpmx=   1.0719E-10

== TH FLOW =====================================================================
  0 2r: 3.76E-13 2x: 0.00E+00 2u: 0.00E+00 ir: 1.84E-14 iu: 0.00E+00 rsn:   0
  1 2r: 3.84E-13 2x: 6.36E+07 2u: 1.18E-08 ir: 1.88E-14 iu: 5.65E-10 rsn: itol_upd
 Step    132 Time=  6.00000E+00 Dt=  5.00000E-02 [y] snes_conv_reason:   11
  newton =   1 [     133] linear =   133 [     15727] cuts =  0 [   0]
  --> max chng: dpmx=   5.8208E-10 dtmpmx=   1.0582E-10

== TH FLOW =====================================================================
  0 2r: 3.81E-13 2x: 0.00E+00 2u: 0.00E+00 ir: 1.87E-14 iu: 0.00E+00 rsn:   0
  1 2r: 3.76E-13 2x: 6.36E+07 2u: 1.00E-08 ir: 1.79E-14 iu: 4.93E-10 rsn: itol_upd
 Step    133 Time=  6.05000E+00 Dt=  5.00000E-02 [y] snes_conv_reason:   11
  newton =   1 [     134] linear =   133 [     15860] cuts =  0 [   0]
  --> max chng: dpmx=   4.6566E-10 dtmpmx=   1.0763E-10

== TH FLOW =====================================================================
  0 2r: 3.73E-13 2x: 0.00E+00 2u: 0.00E+00 ir: 1.76E-14 iu: 0.00E+00 rsn:   0
  1 2r: 3.75E-13 2x: 6.36E+07 2u: 8.88E-09 ir: 1.85E-14 iu: 4.68E-10 rsn: itol_upd
 Step    134 Time=  6.10000E+00 Dt=  5.00000E-02 [y] snes_conv_reason:   11
  newton =   1 [     135] linear =   128 [     15988] cuts =  0 [   0]
  --> max chng: dpmx=   4.6566E-10 dtmpmx=   1.0347E-10

== TH FLOW =====================================================================
  0 2r: 3.72E-13 2x: 0.00E+00 2u: 0.00E+00 ir: 1.83E-14 iu: 0.00E+00 rsn:   0
  1 2r: 3.78E-13 2x: 6.36E+07 2u: 9.62E-09 ir: 1.86E-14 iu: 4.86E-10 rsn: itol_upd
 Step    135 Time=  6.15000E+00 Dt=  5.00000E-02 [y] snes_conv_reason:   11
  newton =   1 [     136] linear =   122 [     16110] cuts =  0 [   0]
  --> max chng: dpmx=   4.6566E-10 dtmpmx=   1.0821E-10

== TH FLOW =====================================================================
  0 2r: 3.75E-13 2x: 0.00E+00 2u: 0.00E+00 ir: 1.84E-14 iu: 0.00E+00 rsn:   0
  1 2r: 3.76E-13 2x: 6.36E+07 2u: 9.08E-09 ir: 1.82E-14 iu: 4.70E-10 rsn: itol_upd
 Step    136 Time=  6.20000E+00 Dt=  5.00000E-02 [y] snes_conv_reason:   11
  newton =   1 [     137] linear =   126 [     16236] cuts =  0 [   0]
  --> max chng: dpmx=   4.6566E-10 dtmpmx=   1.2087E-10

== TH FLOW =====================================================================
  0 2r: 3.73E-13 2x: 0.00E+00 2u: 0.00E+00 ir: 1.81E-14 iu: 0.00E+00 rsn:   0
  1 2r: 3.83E-13 2x: 6.36E+07 2u: 1.04E-08 ir: 1.98E-14 iu: 5.45E-10 rsn: itol_upd
 Step    137 Time=  6.25000E+00 Dt=  5.00000E-02 [y] snes_conv_reason:   11
  newton =   1 [     138] linear =   118 [     16354] cuts =  0 [   0]
  --> max chng: dpmx=   5.8208E-10 dtmpmx=   1.0288E-10

== TH FLOW =====================================================================
  0 2r: 3.79E-13 2x: 0.00E+00 2u: 0.00E+00 ir: 1.96E-14 iu: 0.00E+00 rsn:   0
  1 2r: 3.78E-13 2x: 6.36E+07 2u: 9.53E-09 ir: 1.78E-14 iu: 4.46E-10 rsn: itol_upd
 Step    138 Time=  6.30000E+00 Dt=  5.00000E-02 [y] snes_conv_reason:   11
  newton =   1 [     139] linear =   115 [     16469] cuts =  0 [   0]
  --> max chng: dpmx=   4.6566E-10 dtmpmx=   1.0524E-10

== TH FLOW =====================================================================
  0 2r: 3.75E-13 2x: 0.00E+00 2u: 0.00E+00 ir: 1.77E-14 iu: 0.00E+00 rsn:   0
  1 2r: 3.75E-13 2x: 6.36E+07 2u: 1.09E-08 ir: 1.79E-14 iu: 5.05E-10 rsn: itol_upd
 Step    139 Time=  6.35000E+00 Dt=  5.00000E-02 [y] snes_conv_reason:   11
  newton =   1 [     140] linear =    93 [     16562] cuts =  0 [   0]
  --> max chng: dpmx=   4.6566E-10 dtmpmx=   1.2320E-10

== TH FLOW =====================================================================
  0 2r: 3.72E-13 2x: 0.00E+00 2u: 0.00E+00 ir: 1.76E-14 iu: 0.00E+00 rsn:   0
  1 2r: 3.72E-13 2x: 6.36E+07 2u: 9.63E-09 ir: 1.78E-14 iu: 4.36E-10 rsn: itol_upd
 Step    140 Time=  6.40000E+00 Dt=  5.00000E-02 [y] snes_conv_reason:   11
  newton =   1 [     141] linear =   109 [     16671] cuts =  0 [   0]
  --> max chng: dpmx=   4.6566E-10 dtmpmx=   1.0932E-10

== TH FLOW =====================================================================
  0 2r: 3.68E-13 2x: 0.00E+00 2u: 0.00E+00 ir: 1.78E-14 iu: 0.00E+00 rsn:   0
  1 2r: 3.73E-13 2x: 6.36E+07 2u: 9.63E-09 ir: 1.67E-14 iu: 4.23E-10 rsn: itol_upd
 Step    141 Time=  6.45000E+00 Dt=  5.00000E-02 [y] snes_conv_reason:   11
  newton =   1 [     142] linear =   111 [     16782] cuts =  0 [   0]
  --> max chng: dpmx=   4.6566E-10 dtmpmx=   1.1232E-10

== TH FLOW =====================================================================
  0 2r: 3.70E-13 2x: 0.00E+00 2u: 0.00E+00 ir: 1.66E-14 iu: 0.00E+00 rsn:   0
  1 2r: 3.68E-13 2x: 6.36E+07 2u: 1.03E-08 ir: 1.83E-14 iu: 5.62E-10 rsn: itol_upd
 Step    142 Time=  6.50000E+00 Dt=  5.00000E-02 [y] snes_conv_reason:   11
  newton =   1 [     143] linear =   116 [     16898] cuts =  0 [   0]
  --> max chng: dpmx=   5.8208E-10 dtmpmx=   1.0546E-10

== TH FLOW =====================================================================
  0 2r: 3.65E-13 2x: 0.00E+00 2u: 0.00E+00 ir: 1.81E-14 iu: 0.00E+00 rsn:   0
  1 2r: 3.73E-13 2x: 6.36E+07 2u: 9.27E-09 ir: 2.10E-14 iu: 4.80E-10 rsn: itol_upd
 Step    143 Time=  6.55000E+00 Dt=  5.00000E-02 [y] snes_conv_reason:   11
  newton =   1 [     144] linear =   112 [     17010] cuts =  0 [   0]
  --> max chng: dpmx=   4.6566E-10 dtmpmx=   1.0655E-10

== TH FLOW =====================================================================
  0 2r: 3.70E-13 2x: 0.00E+00 2u: 0.00E+00 ir: 2.07E-14 iu: 0.00E+00 rsn:   0
  1 2r: 3.71E-13 2x: 6.36E+07 2u: 1.06E-08 ir: 1.77E-14 iu: 4.74E-10 rsn: itol_upd
 Step    144 Time=  6.60000E+00 Dt=  5.00000E-02 [y] snes_conv_reason:   11
  newton =   1 [     145] linear =   133 [     17143] cuts =  0 [   0]
  --> max chng: dpmx=   4.6566E-10 dtmpmx=   9.6682E-11

== TH FLOW =====================================================================
  0 2r: 3.68E-13 2x: 0.00E+00 2u: 0.00E+00 ir: 1.75E-14 iu: 0.00E+00 rsn:   0
  1 2r: 3.74E-13 2x: 6.36E+07 2u: 1.15E-08 ir: 1.70E-14 iu: 4.67E-10 rsn: itol_upd
 Step    145 Time=  6.65000E+00 Dt=  5.00000E-02 [y] snes_conv_reason:   11
  newton =   1 [     146] linear =   115 [     17258] cuts =  0 [   0]
  --> max chng: dpmx=   4.6566E-10 dtmpmx=   1.0710E-10

== TH FLOW =====================================================================
  0 2r: 3.71E-13 2x: 0.00E+00 2u: 0.00E+00 ir: 1.68E-14 iu: 0.00E+00 rsn:   0
  1 2r: 3.79E-13 2x: 6.36E+07 2u: 8.58E-09 ir: 1.94E-14 iu: 3.85E-10 rsn: itol_upd
 Step    146 Time=  6.70000E+00 Dt=  5.00000E-02 [y] snes_conv_reason:   11
  newton =   1 [     147] linear =    87 [     17345] cuts =  0 [   0]
  --> max chng: dpmx=   3.4925E-10 dtmpmx=   1.0324E-10

== TH FLOW =====================================================================
  0 2r: 3.75E-13 2x: 0.00E+00 2u: 0.00E+00 ir: 1.92E-14 iu: 0.00E+00 rsn:   0
  1 2r: 3.74E-13 2x: 6.36E+07 2u: 8.33E-09 ir: 1.91E-14 iu: 4.39E-10 rsn: itol_upd
 Step    147 Time=  6.75000E+00 Dt=  5.00000E-02 [y] snes_conv_reason:   11
  newton =   1 [     148] linear =   100 [     17445] cuts =  0 [   0]
  --> max chng: dpmx=   4.6566E-10 dtmpmx=   1.2638E-10

== TH FLOW =====================================================================
  0 2r: 3.71E-13 2x: 0.00E+00 2u: 0.00E+00 ir: 1.89E-14 iu: 0.00E+00 rsn:   0
  1 2r: 3.75E-13 2x: 6.36E+07 2u: 1.09E-08 ir: 1.84E-14 iu: 5.39E-10 rsn: itol_upd
 Step    148 Time=  6.80000E+00 Dt=  5.00000E-02 [y] snes_conv_reason:   11
  newton =   1 [     149] linear =   123 [     17568] cuts =  0 [   0]
  --> max chng: dpmx=   5.8208E-10 dtmpmx=   1.0671E-10

== TH FLOW =====================================================================
  0 2r: 3.72E-13 2x: 0.00E+00 2u: 0.00E+00 ir: 1.83E-14 iu: 0.00E+00 rsn:   0
  1 2r: 3.72E-13 2x: 6.36E+07 2u: 1.10E-08 ir: 1.82E-14 iu: 4.80E-10 rsn: itol_upd
 Step    149 Time=  6.85000E+00 Dt=  5.00000E-02 [y] snes_conv_reason:   11
  newton =   1 [     150] linear =   123 [     17691] cuts =  0 [   0]
  --> max chng: dpmx=   4.6566E-10 dtmpmx=   1.1148E-10

== TH FLOW =====================================================================
  0 2r: 3.69E-13 2x: 0.00E+00 2u: 0.00E+00 ir: 1.80E-14 iu: 0.00E+00 rsn:   0
  1 2r: 3.78E-13 2x: 6.36E+07 2u: 1.34E-08 ir: 2.05E-14 iu: 5.68E-10 rsn: itol_upd
 Step    150 Time=  6.90000E+00 Dt=  5.00000E-02 [y] snes_conv_reason:   11
  newton =   1 [     151] linear =   124 [     17815] cuts =  0 [   0]
  --> max chng: dpmx=   5.8208E-10 dtmpmx=   1.1259E-10

== TH FLOW =====================================================================
  0 2r: 3.74E-13 2x: 0.00E+00 2u: 0.00E+00 ir: 2.02E-14 iu: 0.00E+00 rsn:   0
  1 2r: 3.79E-13 2x: 6.36E+07 2u: 1.11E-08 ir: 1.71E-14 iu: 5.22E-10 rsn: itol_upd
 Step    151 Time=  6.95000E+00 Dt=  5.00000E-02 [y] snes_conv_reason:   11
  newton =   1 [     152] linear =   113 [     17928] cuts =  0 [   0]
  --> max chng: dpmx=   4.6566E-10 dtmpmx=   1.1862E-10

== TH FLOW =====================================================================
  0 2r: 3.75E-13 2x: 0.00E+00 2u: 0.00E+00 ir: 1.68E-14 iu: 0.00E+00 rsn:   0
  1 2r: 3.77E-13 2x: 6.36E+07 2u: 1.00E-08 ir: 1.69E-14 iu: 5.11E-10 rsn: itol_upd
 Step    152 Time=  7.00000E+00 Dt=  5.00000E-02 [y] snes_conv_reason:   11
  newton =   1 [     153] linear =   126 [     18054] cuts =  0 [   0]
  --> max chng: dpmx=   4.6566E-10 dtmpmx=   1.0988E-10

== TH FLOW =====================================================================
  0 2r: 3.74E-13 2x: 0.00E+00 2u: 0.00E+00 ir: 1.67E-14 iu: 0.00E+00 rsn:   0
  1 2r: 3.72E-13 2x: 6.36E+07 2u: 1.12E-08 ir: 1.82E-14 iu: 5.13E-10 rsn: itol_upd
 Step    153 Time=  7.05000E+00 Dt=  5.00000E-02 [y] snes_conv_reason:   11
  newton =   1 [     154] linear =   121 [     18175] cuts =  0 [   0]
  --> max chng: dpmx=   4.6566E-10 dtmpmx=   9.4948E-11

== TH FLOW =====================================================================
  0 2r: 3.69E-13 2x: 0.00E+00 2u: 0.00E+00 ir: 1.79E-14 iu: 0.00E+00 rsn:   0
  1 2r: 3.73E-13 2x: 6.36E+07 2u: 8.24E-09 ir: 1.70E-14 iu: 4.24E-10 rsn: itol_upd
 Step    154 Time=  7.10000E+00 Dt=  5.00000E-02 [y] snes_conv_reason:   11
  newton =   1 [     155] linear =   115 [     18290] cuts =  0 [   0]
  --> max chng: dpmx=   4.6566E-10 dtmpmx=   1.1666E-10

== TH FLOW =====================================================================
  0 2r: 3.69E-13 2x: 0.00E+00 2u: 0.00E+00 ir: 1.68E-14 iu: 0.00E+00 rsn:   0
  1 2r: 3.69E-13 2x: 6.36E+07 2u: 8.18E-09 ir: 1.73E-14 iu: 3.67E-10 rsn: itol_upd
 Step    155 Time=  7.15000E+00 Dt=  5.00000E-02 [y] snes_conv_reason:   11
  newton =   1 [     156] linear =   122 [     18412] cuts =  0 [   0]
  --> max chng: dpmx=   3.4925E-10 dtmpmx=   1.0153E-10

== TH FLOW =====================================================================
  0 2r: 3.66E-13 2x: 0.00E+00 2u: 0.00E+00 ir: 1.70E-14 iu: 0.00E+00 rsn:   0
  1 2r: 3.76E-13 2x: 6.36E+07 2u: 1.25E-08 ir: 1.89E-14 iu: 5.16E-10 rsn: itol_upd
 Step    156 Time=  7.20000E+00 Dt=  5.00000E-02 [y] snes_conv_reason:   11
  newton =   1 [     157] linear =   115 [     18527] cuts =  0 [   0]
  --> max chng: dpmx=   4.6566E-10 dtmpmx=   1.0666E-10

== TH FLOW =====================================================================
  0 2r: 3.73E-13 2x: 0.00E+00 2u: 0.00E+00 ir: 1.87E-14 iu: 0.00E+00 rsn:   0
  1 2r: 3.74E-13 2x: 6.36E+07 2u: 7.51E-09 ir: 1.87E-14 iu: 3.14E-10 rsn: itol_upd
 Step    157 Time=  7.25000E+00 Dt=  5.00000E-02 [y] snes_conv_reason:   11
  newton =   1 [     158] linear =   108 [     18635] cuts =  0 [   0]
  --> max chng: dpmx=   3.4925E-10 dtmpmx=   1.0324E-10

== TH FLOW =====================================================================
  0 2r: 3.70E-13 2x: 0.00E+00 2u: 0.00E+00 ir: 1.84E-14 iu: 0.00E+00 rsn:   0
  1 2r: 3.76E-13 2x: 6.36E+07 2u: 1.19E-08 ir: 1.91E-14 iu: 5.05E-10 rsn: itol_upd
 Step    158 Time=  7.30000E+00 Dt=  5.00000E-02 [y] snes_conv_reason:   11
  newton =   1 [     159] linear =   123 [     18758] cuts =  0 [   0]
  --> max chng: dpmx=   4.6566E-10 dtmpmx=   1.1934E-10

== TH FLOW =====================================================================
  0 2r: 3.73E-13 2x: 0.00E+00 2u: 0.00E+00 ir: 1.90E-14 iu: 0.00E+00 rsn:   0
  1 2r: 3.79E-13 2x: 6.36E+07 2u: 8.93E-09 ir: 1.93E-14 iu: 4.61E-10 rsn: itol_upd
 Step    159 Time=  7.35000E+00 Dt=  5.00000E-02 [y] snes_conv_reason:   11
  newton =   1 [     160] linear =   132 [     18890] cuts =  0 [   0]
  --> max chng: dpmx=   4.6566E-10 dtmpmx=   9.9883E-11

== TH FLOW =====================================================================
  0 2r: 3.76E-13 2x: 0.00E+00 2u: 0.00E+00 ir: 1.91E-14 iu: 0.00E+00 rsn:   0
  1 2r: 3.76E-13 2x: 6.36E+07 2u: 1.08E-08 ir: 1.85E-14 iu: 5.03E-10 rsn: itol_upd
 Step    160 Time=  7.40000E+00 Dt=  5.00000E-02 [y] snes_conv_reason:   11
  newton =   1 [     161] linear =   118 [     19008] cuts =  0 [   0]
  --> max chng: dpmx=   4.6566E-10 dtmpmx=   1.0671E-10

== TH FLOW =====================================================================
  0 2r: 3.72E-13 2x: 0.00E+00 2u: 0.00E+00 ir: 1.83E-14 iu: 0.00E+00 rsn:   0
  1 2r: 3.71E-13 2x: 6.36E+07 2u: 9.49E-09 ir: 1.90E-14 iu: 4.43E-10 rsn: itol_upd
 Step    161 Time=  7.45000E+00 Dt=  5.00000E-02 [y] snes_conv_reason:   11
  newton =   1 [     162] linear =   120 [     19128] cuts =  0 [   0]
  --> max chng: dpmx=   4.6566E-10 dtmpmx=   1.1160E-10

== TH FLOW =====================================================================
  0 2r: 3.67E-13 2x: 0.00E+00 2u: 0.00E+00 ir: 1.86E-14 iu: 0.00E+00 rsn:   0
  1 2r: 3.75E-13 2x: 6.36E+07 2u: 9.34E-09 ir: 2.08E-14 iu: 4.36E-10 rsn: itol_upd
 Step    162 Time=  7.50000E+00 Dt=  5.00000E-02 [y] snes_conv_reason:   11
  newton =   1 [     163] linear =   127 [     19255] cuts =  0 [   0]
  --> max chng: dpmx=   4.6566E-10 dtmpmx=   1.1790E-10

== TH FLOW =====================================================================
  0 2r: 3.71E-13 2x: 0.00E+00 2u: 0.00E+00 ir: 2.06E-14 iu: 0.00E+00 rsn:   0
  1 2r: 3.78E-13 2x: 6.36E+07 2u: 9.90E-09 ir: 1.86E-14 iu: 4.20E-10 rsn: itol_upd
 Step    163 Time=  7.55000E+00 Dt=  5.00000E-02 [y] snes_conv_reason:   11
  newton =   1 [     164] linear =   135 [     19390] cuts =  0 [   0]
  --> max chng: dpmx=   4.6566E-10 dtmpmx=   1.2535E-10

== TH FLOW =====================================================================
  0 2r: 3.75E-13 2x: 0.00E+00 2u: 0.00E+00 ir: 1.83E-14 iu: 0.00E+00 rsn:   0
  1 2r: 3.73E-13 2x: 6.36E+07 2u: 9.03E-09 ir: 1.82E-14 iu: 4.43E-10 rsn: itol_upd
 Step    164 Time=  7.60000E+00 Dt=  5.00000E-02 [y] snes_conv_reason:   11
  newton =   1 [     165] linear =   128 [     19518] cuts =  0 [   0]
  --> max chng: dpmx=   4.6566E-10 dtmpmx=   1.0214E-10

[...]
  1 2r: 3.72E-13 2x: 6.36E+07 2u: 9.65E-09 ir: 1.80E-14 iu: 4.65E-10 rsn: itol_upd
 Step    518 Time=  2.53000E+01 Dt=  5.00000E-02 [y] snes_conv_reason:   11
  newton =   1 [     519] linear =   120 [     60711] cuts =  0 [   0]
  --> max chng: dpmx=   4.6566E-10 dtmpmx=   1.0916E-10

== TH FLOW =====================================================================
  0 2r: 3.69E-13 2x: 0.00E+00 2u: 0.00E+00 ir: 1.78E-14 iu: 0.00E+00 rsn:   0
  1 2r: 3.69E-13 2x: 6.36E+07 2u: 8.31E-09 ir: 1.89E-14 iu: 4.00E-10 rsn: itol_upd
 Step    519 Time=  2.53500E+01 Dt=  5.00000E-02 [y] snes_conv_reason:   11
  newton =   1 [     520] linear =   106 [     60817] cuts =  0 [   0]
  --> max chng: dpmx=   3.4925E-10 dtmpmx=   1.1219E-10

== TH FLOW =====================================================================
  0 2r: 3.66E-13 2x: 0.00E+00 2u: 0.00E+00 ir: 1.88E-14 iu: 0.00E+00 rsn:   0
  1 2r: 3.77E-13 2x: 6.36E+07 2u: 8.61E-09 ir: 2.15E-14 iu: 4.15E-10 rsn: itol_upd
 Step    520 Time=  2.54000E+01 Dt=  5.00000E-02 [y] snes_conv_reason:   11
  newton =   1 [     521] linear =   111 [     60928] cuts =  0 [   0]
  --> max chng: dpmx=   4.6566E-10 dtmpmx=   1.1713E-10

== TH FLOW =====================================================================
  0 2r: 3.74E-13 2x: 0.00E+00 2u: 0.00E+00 ir: 2.12E-14 iu: 0.00E+00 rsn:   0
  1 2r: 3.73E-13 2x: 6.36E+07 2u: 9.55E-09 ir: 1.83E-14 iu: 5.47E-10 rsn: itol_upd
 Step    521 Time=  2.54500E+01 Dt=  5.00000E-02 [y] snes_conv_reason:   11
  newton =   1 [     522] linear =   118 [     61046] cuts =  0 [   0]
  --> max chng: dpmx=   5.8208E-10 dtmpmx=   1.0572E-10

== TH FLOW =====================================================================
  0 2r: 3.70E-13 2x: 0.00E+00 2u: 0.00E+00 ir: 1.80E-14 iu: 0.00E+00 rsn:   0
  1 2r: 3.80E-13 2x: 6.36E+07 2u: 1.04E-08 ir: 2.06E-14 iu: 5.46E-10 rsn: itol_upd
 Step    522 Time=  2.55000E+01 Dt=  5.00000E-02 [y] snes_conv_reason:   11
  newton =   1 [     523] linear =   116 [     61162] cuts =  0 [   0]
  --> max chng: dpmx=   5.8208E-10 dtmpmx=   1.0611E-10

== TH FLOW =====================================================================
  0 2r: 3.76E-13 2x: 0.00E+00 2u: 0.00E+00 ir: 2.03E-14 iu: 0.00E+00 rsn:   0
  1 2r: 3.81E-13 2x: 6.36E+07 2u: 8.72E-09 ir: 2.01E-14 iu: 4.25E-10 rsn: itol_upd
 Step    523 Time=  2.55500E+01 Dt=  5.00000E-02 [y] snes_conv_reason:   11
  newton =   1 [     524] linear =   105 [     61267] cuts =  0 [   0]
  --> max chng: dpmx=   4.6566E-10 dtmpmx=   1.2270E-10

== TH FLOW =====================================================================
  0 2r: 3.78E-13 2x: 0.00E+00 2u: 0.00E+00 ir: 1.98E-14 iu: 0.00E+00 rsn:   0
  1 2r: 3.79E-13 2x: 6.36E+07 2u: 1.22E-08 ir: 1.83E-14 iu: 5.57E-10 rsn: itol_upd
 Step    524 Time=  2.56000E+01 Dt=  5.00000E-02 [y] snes_conv_reason:   11
  newton =   1 [     525] linear =   133 [     61400] cuts =  0 [   0]
  --> max chng: dpmx=   5.8208E-10 dtmpmx=   1.0771E-10

== TH FLOW =====================================================================
  0 2r: 3.76E-13 2x: 0.00E+00 2u: 0.00E+00 ir: 1.80E-14 iu: 0.00E+00 rsn:   0
  1 2r: 3.76E-13 2x: 6.36E+07 2u: 9.24E-09 ir: 2.23E-14 iu: 4.60E-10 rsn: itol_upd
 Step    525 Time=  2.56500E+01 Dt=  5.00000E-02 [y] snes_conv_reason:   11
  newton =   1 [     526] linear =   125 [     61525] cuts =  0 [   0]
  --> max chng: dpmx=   4.6566E-10 dtmpmx=   1.1065E-10

== TH FLOW =====================================================================
  0 2r: 3.72E-13 2x: 0.00E+00 2u: 0.00E+00 ir: 2.23E-14 iu: 0.00E+00 rsn:   0
  1 2r: 3.76E-13 2x: 6.36E+07 2u: 1.05E-08 ir: 1.95E-14 iu: 4.57E-10 rsn: itol_upd
 Step    526 Time=  2.57000E+01 Dt=  5.00000E-02 [y] snes_conv_reason:   11
  newton =   1 [     527] linear =   130 [     61655] cuts =  0 [   0]
  --> max chng: dpmx=   4.6566E-10 dtmpmx=   1.1360E-10

== TH FLOW =====================================================================
  0 2r: 3.72E-13 2x: 0.00E+00 2u: 0.00E+00 ir: 1.94E-14 iu: 0.00E+00 rsn:   0
  1 2r: 3.81E-13 2x: 6.36E+07 2u: 9.67E-09 ir: 1.87E-14 iu: 4.42E-10 rsn: itol_upd
 Step    527 Time=  2.57500E+01 Dt=  5.00000E-02 [y] snes_conv_reason:   11
  newton =   1 [     528] linear =   117 [     61772] cuts =  0 [   0]
  --> max chng: dpmx=   4.6566E-10 dtmpmx=   9.5653E-11

== TH FLOW =====================================================================
  0 2r: 3.77E-13 2x: 0.00E+00 2u: 0.00E+00 ir: 1.86E-14 iu: 0.00E+00 rsn:   0
  1 2r: 3.76E-13 2x: 6.36E+07 2u: 8.78E-09 ir: 1.78E-14 iu: 4.41E-10 rsn: itol_upd
 Step    528 Time=  2.58000E+01 Dt=  5.00000E-02 [y] snes_conv_reason:   11
  newton =   1 [     529] linear =   129 [     61901] cuts =  0 [   0]
  --> max chng: dpmx=   4.6566E-10 dtmpmx=   1.1149E-10

== TH FLOW =====================================================================
  0 2r: 3.73E-13 2x: 0.00E+00 2u: 0.00E+00 ir: 1.77E-14 iu: 0.00E+00 rsn:   0
  1 2r: 3.69E-13 2x: 6.36E+07 2u: 8.55E-09 ir: 1.88E-14 iu: 4.12E-10 rsn: itol_upd
 Step    529 Time=  2.58500E+01 Dt=  5.00000E-02 [y] snes_conv_reason:   11
  newton =   1 [     530] linear =   134 [     62035] cuts =  0 [   0]
  --> max chng: dpmx=   4.6566E-10 dtmpmx=   1.0853E-10

== TH FLOW =====================================================================
  0 2r: 3.66E-13 2x: 0.00E+00 2u: 0.00E+00 ir: 1.86E-14 iu: 0.00E+00 rsn:   0
  1 2r: 3.74E-13 2x: 6.36E+07 2u: 8.62E-09 ir: 1.83E-14 iu: 4.23E-10 rsn: itol_upd
 Step    530 Time=  2.59000E+01 Dt=  5.00000E-02 [y] snes_conv_reason:   11
  newton =   1 [     531] linear =   118 [     62153] cuts =  0 [   0]
  --> max chng: dpmx=   4.6566E-10 dtmpmx=   1.0566E-10

== TH FLOW =====================================================================
  0 2r: 3.71E-13 2x: 0.00E+00 2u: 0.00E+00 ir: 1.82E-14 iu: 0.00E+00 rsn:   0
  1 2r: 3.78E-13 2x: 6.36E+07 2u: 1.02E-08 ir: 1.88E-14 iu: 5.17E-10 rsn: itol_upd
 Step    531 Time=  2.59500E+01 Dt=  5.00000E-02 [y] snes_conv_reason:   11
  newton =   1 [     532] linear =   121 [     62274] cuts =  0 [   0]
  --> max chng: dpmx=   4.6566E-10 dtmpmx=   1.0600E-10

== TH FLOW =====================================================================
  0 2r: 3.75E-13 2x: 0.00E+00 2u: 0.00E+00 ir: 1.88E-14 iu: 0.00E+00 rsn:   0
  1 2r: 3.83E-13 2x: 6.36E+07 2u: 1.13E-08 ir: 2.06E-14 iu: 4.92E-10 rsn: itol_upd
 Step    532 Time=  2.60000E+01 Dt=  5.00000E-02 [y] snes_conv_reason:   11
  newton =   1 [     533] linear =   121 [     62395] cuts =  0 [   0]
  --> max chng: dpmx=   4.6566E-10 dtmpmx=   1.0981E-10

== TH FLOW =====================================================================
  0 2r: 3.79E-13 2x: 0.00E+00 2u: 0.00E+00 ir: 2.05E-14 iu: 0.00E+00 rsn:   0
  1 2r: 3.73E-13 2x: 6.36E+07 2u: 1.30E-08 ir: 1.86E-14 iu: 6.02E-10 rsn: itol_upd
 Step    533 Time=  2.60500E+01 Dt=  5.00000E-02 [y] snes_conv_reason:   11
  newton =   1 [     534] linear =   123 [     62518] cuts =  0 [   0]
  --> max chng: dpmx=   5.8208E-10 dtmpmx=   1.0499E-10

== TH FLOW =====================================================================
  0 2r: 3.69E-13 2x: 0.00E+00 2u: 0.00E+00 ir: 1.84E-14 iu: 0.00E+00 rsn:   0
  1 2r: 3.68E-13 2x: 6.36E+07 2u: 1.48E-08 ir: 1.86E-14 iu: 5.80E-10 rsn: itol_upd
 Step    534 Time=  2.61000E+01 Dt=  5.00000E-02 [y] snes_conv_reason:   11
  newton =   1 [     535] linear =   119 [     62637] cuts =  0 [   0]
  --> max chng: dpmx=   5.8208E-10 dtmpmx=   1.0260E-10

== TH FLOW =====================================================================
  0 2r: 3.65E-13 2x: 0.00E+00 2u: 0.00E+00 ir: 1.85E-14 iu: 0.00E+00 rsn:   0
  1 2r: 3.63E-13 2x: 6.36E+07 2u: 7.80E-09 ir: 1.65E-14 iu: 3.53E-10 rsn: itol_upd
 Step    535 Time=  2.61500E+01 Dt=  5.00000E-02 [y] snes_conv_reason:   11
  newton =   1 [     536] linear =   120 [     62757] cuts =  0 [   0]
  --> max chng: dpmx=   3.4925E-10 dtmpmx=   9.8932E-11

== TH FLOW =====================================================================
  0 2r: 3.60E-13 2x: 0.00E+00 2u: 0.00E+00 ir: 1.64E-14 iu: 0.00E+00 rsn:   0
  1 2r: 3.72E-13 2x: 6.36E+07 2u: 1.21E-08 ir: 1.91E-14 iu: 5.54E-10 rsn: itol_upd
 Step    536 Time=  2.62000E+01 Dt=  5.00000E-02 [y] snes_conv_reason:   11
  newton =   1 [     537] linear =   133 [     62890] cuts =  0 [   0]
  --> max chng: dpmx=   5.8208E-10 dtmpmx=   1.0540E-10

== TH FLOW =====================================================================
  0 2r: 3.69E-13 2x: 0.00E+00 2u: 0.00E+00 ir: 1.89E-14 iu: 0.00E+00 rsn:   0
  1 2r: 3.70E-13 2x: 6.36E+07 2u: 1.24E-08 ir: 2.17E-14 iu: 5.67E-10 rsn: itol_upd
 Step    537 Time=  2.62500E+01 Dt=  5.00000E-02 [y] snes_conv_reason:   11
  newton =   1 [     538] linear =   126 [     63016] cuts =  0 [   0]
  --> max chng: dpmx=   5.8208E-10 dtmpmx=   1.2276E-10

== TH FLOW =====================================================================
  0 2r: 3.66E-13 2x: 0.00E+00 2u: 0.00E+00 ir: 2.14E-14 iu: 0.00E+00 rsn:   0
  1 2r: 3.78E-13 2x: 6.36E+07 2u: 1.19E-08 ir: 1.75E-14 iu: 5.00E-10 rsn: itol_upd
 Step    538 Time=  2.63000E+01 Dt=  5.00000E-02 [y] snes_conv_reason:   11
  newton =   1 [     539] linear =   133 [     63149] cuts =  0 [   0]
  --> max chng: dpmx=   4.6566E-10 dtmpmx=   1.0933E-10

== TH FLOW =====================================================================
  0 2r: 3.74E-13 2x: 0.00E+00 2u: 0.00E+00 ir: 1.74E-14 iu: 0.00E+00 rsn:   0
  1 2r: 3.77E-13 2x: 6.36E+07 2u: 8.57E-09 ir: 1.95E-14 iu: 4.44E-10 rsn: itol_upd
 Step    539 Time=  2.63500E+01 Dt=  5.00000E-02 [y] snes_conv_reason:   11
  newton =   1 [     540] linear =   125 [     63274] cuts =  0 [   0]
  --> max chng: dpmx=   4.6566E-10 dtmpmx=   1.0072E-10

== TH FLOW =====================================================================
  0 2r: 3.74E-13 2x: 0.00E+00 2u: 0.00E+00 ir: 1.94E-14 iu: 0.00E+00 rsn:   0
  1 2r: 3.72E-13 2x: 6.36E+07 2u: 9.49E-09 ir: 1.90E-14 iu: 4.31E-10 rsn: itol_upd
 Step    540 Time=  2.64000E+01 Dt=  5.00000E-02 [y] snes_conv_reason:   11
  newton =   1 [     541] linear =   125 [     63399] cuts =  0 [   0]
  --> max chng: dpmx=   4.6566E-10 dtmpmx=   1.2528E-10

== TH FLOW =====================================================================
  0 2r: 3.69E-13 2x: 0.00E+00 2u: 0.00E+00 ir: 1.89E-14 iu: 0.00E+00 rsn:   0
  1 2r: 3.69E-13 2x: 6.36E+07 2u: 1.01E-08 ir: 1.66E-14 iu: 4.35E-10 rsn: itol_upd
 Step    541 Time=  2.64500E+01 Dt=  5.00000E-02 [y] snes_conv_reason:   11
  newton =   1 [     542] linear =   130 [     63529] cuts =  0 [   0]
  --> max chng: dpmx=   4.6566E-10 dtmpmx=   1.2780E-10

== TH FLOW =====================================================================
  0 2r: 3.66E-13 2x: 0.00E+00 2u: 0.00E+00 ir: 1.64E-14 iu: 0.00E+00 rsn:   0
  1 2r: 3.75E-13 2x: 6.36E+07 2u: 1.30E-08 ir: 1.99E-14 iu: 5.59E-10 rsn: itol_upd
 Step    542 Time=  2.65000E+01 Dt=  5.00000E-02 [y] snes_conv_reason:   11
  newton =   1 [     543] linear =   120 [     63649] cuts =  0 [   0]
  --> max chng: dpmx=   5.8208E-10 dtmpmx=   1.0117E-10

== TH FLOW =====================================================================
  0 2r: 3.71E-13 2x: 0.00E+00 2u: 0.00E+00 ir: 1.96E-14 iu: 0.00E+00 rsn:   0
  1 2r: 3.73E-13 2x: 6.36E+07 2u: 1.18E-08 ir: 1.81E-14 iu: 5.87E-10 rsn: itol_upd
 Step    543 Time=  2.65500E+01 Dt=  5.00000E-02 [y] snes_conv_reason:   11
  newton =   1 [     544] linear =   116 [     63765] cuts =  0 [   0]
  --> max chng: dpmx=   5.8208E-10 dtmpmx=   1.1281E-10

== TH FLOW =====================================================================
  0 2r: 3.70E-13 2x: 0.00E+00 2u: 0.00E+00 ir: 1.80E-14 iu: 0.00E+00 rsn:   0
  1 2r: 3.73E-13 2x: 6.36E+07 2u: 9.93E-09 ir: 1.91E-14 iu: 4.70E-10 rsn: itol_upd
 Step    544 Time=  2.66000E+01 Dt=  5.00000E-02 [y] snes_conv_reason:   11
  newton =   1 [     545] linear =   113 [     63878] cuts =  0 [   0]
  --> max chng: dpmx=   4.6566E-10 dtmpmx=   1.0211E-10

== TH FLOW =====================================================================
  0 2r: 3.70E-13 2x: 0.00E+00 2u: 0.00E+00 ir: 1.89E-14 iu: 0.00E+00 rsn:   0
  1 2r: 3.72E-13 2x: 6.36E+07 2u: 9.43E-09 ir: 1.97E-14 iu: 4.33E-10 rsn: itol_upd
 Step    545 Time=  2.66500E+01 Dt=  5.00000E-02 [y] snes_conv_reason:   11
  newton =   1 [     546] linear =   126 [     64004] cuts =  0 [   0]
  --> max chng: dpmx=   4.6566E-10 dtmpmx=   1.0593E-10

== TH FLOW =====================================================================
  0 2r: 3.69E-13 2x: 0.00E+00 2u: 0.00E+00 ir: 1.94E-14 iu: 0.00E+00 rsn:   0
  1 2r: 3.66E-13 2x: 6.36E+07 2u: 1.06E-08 ir: 1.90E-14 iu: 4.74E-10 rsn: itol_upd
 Step    546 Time=  2.67000E+01 Dt=  5.00000E-02 [y] snes_conv_reason:   11
  newton =   1 [     547] linear =   112 [     64116] cuts =  0 [   0]
  --> max chng: dpmx=   4.6566E-10 dtmpmx=   1.2622E-10

== TH FLOW =====================================================================
  0 2r: 3.63E-13 2x: 0.00E+00 2u: 0.00E+00 ir: 1.88E-14 iu: 0.00E+00 rsn:   0
  1 2r: 3.74E-13 2x: 6.36E+07 2u: 1.30E-08 ir: 2.00E-14 iu: 5.61E-10 rsn: itol_upd
 Step    547 Time=  2.67500E+01 Dt=  5.00000E-02 [y] snes_conv_reason:   11
  newton =   1 [     548] linear =   124 [     64240] cuts =  0 [   0]
  --> max chng: dpmx=   5.8208E-10 dtmpmx=   1.0018E-10

== TH FLOW =====================================================================
  0 2r: 3.71E-13 2x: 0.00E+00 2u: 0.00E+00 ir: 1.97E-14 iu: 0.00E+00 rsn:   0
  1 2r: 3.72E-13 2x: 6.36E+07 2u: 1.49E-08 ir: 1.79E-14 iu: 6.09E-10 rsn: itol_upd
 Step    548 Time=  2.68000E+01 Dt=  5.00000E-02 [y] snes_conv_reason:   11
  newton =   1 [     549] linear =   115 [     64355] cuts =  0 [   0]
  --> max chng: dpmx=   5.8208E-10 dtmpmx=   1.1084E-10

== TH FLOW =====================================================================
  0 2r: 3.69E-13 2x: 0.00E+00 2u: 0.00E+00 ir: 1.77E-14 iu: 0.00E+00 rsn:   0
  1 2r: 3.76E-13 2x: 6.36E+07 2u: 1.04E-08 ir: 2.02E-14 iu: 4.56E-10 rsn: itol_upd
 Step    549 Time=  2.68500E+01 Dt=  5.00000E-02 [y] snes_conv_reason:   11
  newton =   1 [     550] linear =   113 [     64468] cuts =  0 [   0]
  --> max chng: dpmx=   4.6566E-10 dtmpmx=   9.9210E-11

== TH FLOW =====================================================================
  0 2r: 3.73E-13 2x: 0.00E+00 2u: 0.00E+00 ir: 2.01E-14 iu: 0.00E+00 rsn:   0
  1 2r: 3.88E-13 2x: 6.36E+07 2u: 9.12E-09 ir: 1.86E-14 iu: 5.55E-10 rsn: itol_upd
 Step    550 Time=  2.69000E+01 Dt=  5.00000E-02 [y] snes_conv_reason:   11
  newton =   1 [     551] linear =   132 [     64600] cuts =  0 [   0]
  --> max chng: dpmx=   5.8208E-10 dtmpmx=   1.2013E-10

== TH FLOW =====================================================================
  0 2r: 3.84E-13 2x: 0.00E+00 2u: 0.00E+00 ir: 1.86E-14 iu: 0.00E+00 rsn:   0
  1 2r: 3.77E-13 2x: 6.36E+07 2u: 1.11E-08 ir: 1.89E-14 iu: 4.67E-10 rsn: itol_upd
 Step    551 Time=  2.69500E+01 Dt=  5.00000E-02 [y] snes_conv_reason:   11
  newton =   1 [     552] linear =    85 [     64685] cuts =  0 [   0]
  --> max chng: dpmx=   4.6566E-10 dtmpmx=   1.0333E-10

== TH FLOW =====================================================================
  0 2r: 3.74E-13 2x: 0.00E+00 2u: 0.00E+00 ir: 1.87E-14 iu: 0.00E+00 rsn:   0
  1 2r: 3.72E-13 2x: 6.36E+07 2u: 1.18E-08 ir: 1.82E-14 iu: 5.31E-10 rsn: itol_upd
 Step    552 Time=  2.70000E+01 Dt=  5.00000E-02 [y] snes_conv_reason:   11
  newton =   1 [     553] linear =   122 [     64807] cuts =  0 [   0]
  --> max chng: dpmx=   5.8208E-10 dtmpmx=   1.0568E-10

== TH FLOW =====================================================================
  0 2r: 3.68E-13 2x: 0.00E+00 2u: 0.00E+00 ir: 1.81E-14 iu: 0.00E+00 rsn:   0
  1 2r: 3.76E-13 2x: 6.36E+07 2u: 9.09E-09 ir: 2.06E-14 iu: 4.56E-10 rsn: itol_upd
 Step    553 Time=  2.70500E+01 Dt=  5.00000E-02 [y] snes_conv_reason:   11
  newton =   1 [     554] linear =   117 [     64924] cuts =  0 [   0]
  --> max chng: dpmx=   4.6566E-10 dtmpmx=   1.0744E-10

== TH FLOW =====================================================================
  0 2r: 3.72E-13 2x: 0.00E+00 2u: 0.00E+00 ir: 2.05E-14 iu: 0.00E+00 rsn:   0
  1 2r: 3.76E-13 2x: 6.36E+07 2u: 8.47E-09 ir: 1.81E-14 iu: 4.03E-10 rsn: itol_upd
 Step    554 Time=  2.71000E+01 Dt=  5.00000E-02 [y] snes_conv_reason:   11
  newton =   1 [     555] linear =    76 [     65000] cuts =  0 [   0]
  --> max chng: dpmx=   3.4925E-10 dtmpmx=   1.0268E-10

== TH FLOW =====================================================================
  0 2r: 3.73E-13 2x: 0.00E+00 2u: 0.00E+00 ir: 1.80E-14 iu: 0.00E+00 rsn:   0
  1 2r: 3.76E-13 2x: 6.36E+07 2u: 1.04E-08 ir: 1.89E-14 iu: 4.49E-10 rsn: itol_upd
 Step    555 Time=  2.71500E+01 Dt=  5.00000E-02 [y] snes_conv_reason:   11
  newton =   1 [     556] linear =   109 [     65109] cuts =  0 [   0]
  --> max chng: dpmx=   4.6566E-10 dtmpmx=   1.0870E-10

== TH FLOW =====================================================================
  0 2r: 3.73E-13 2x: 0.00E+00 2u: 0.00E+00 ir: 1.86E-14 iu: 0.00E+00 rsn:   0
  1 2r: 3.75E-13 2x: 6.36E+07 2u: 1.15E-08 ir: 1.76E-14 iu: 5.26E-10 rsn: itol_upd
 Step    556 Time=  2.72000E+01 Dt=  5.00000E-02 [y] snes_conv_reason:   11
  newton =   1 [     557] linear =   108 [     65217] cuts =  0 [   0]
  --> max chng: dpmx=   5.8208E-10 dtmpmx=   1.0191E-10

== TH FLOW =====================================================================
  0 2r: 3.72E-13 2x: 0.00E+00 2u: 0.00E+00 ir: 1.74E-14 iu: 0.00E+00 rsn:   0
  1 2r: 3.76E-13 2x: 6.36E+07 2u: 8.97E-09 ir: 1.87E-14 iu: 4.17E-10 rsn: itol_upd
 Step    557 Time=  2.72500E+01 Dt=  5.00000E-02 [y] snes_conv_reason:   11
  newton =   1 [     558] linear =   117 [     65334] cuts =  0 [   0]
  --> max chng: dpmx=   4.6566E-10 dtmpmx=   1.0626E-10

== TH FLOW =====================================================================
  0 2r: 3.73E-13 2x: 0.00E+00 2u: 0.00E+00 ir: 1.84E-14 iu: 0.00E+00 rsn:   0
  1 2r: 3.75E-13 2x: 6.36E+07 2u: 7.37E-09 ir: 1.82E-14 iu: 4.16E-10 rsn: itol_upd
 Step    558 Time=  2.73000E+01 Dt=  5.00000E-02 [y] snes_conv_reason:   11
  newton =   1 [     559] linear =   129 [     65463] cuts =  0 [   0]
  --> max chng: dpmx=   4.6566E-10 dtmpmx=   1.0188E-10

== TH FLOW =====================================================================
  0 2r: 3.72E-13 2x: 0.00E+00 2u: 0.00E+00 ir: 1.79E-14 iu: 0.00E+00 rsn:   0
  1 2r: 3.71E-13 2x: 6.36E+07 2u: 1.06E-08 ir: 1.82E-14 iu: 4.60E-10 rsn: itol_upd
 Step    559 Time=  2.73500E+01 Dt=  5.00000E-02 [y] snes_conv_reason:   11
  newton =   1 [     560] linear =   120 [     65583] cuts =  0 [   0]
  --> max chng: dpmx=   4.6566E-10 dtmpmx=   1.1302E-10

== TH FLOW =====================================================================
  0 2r: 3.67E-13 2x: 0.00E+00 2u: 0.00E+00 ir: 1.81E-14 iu: 0.00E+00 rsn:   0
  1 2r: 3.74E-13 2x: 6.36E+07 2u: 1.11E-08 ir: 1.73E-14 iu: 5.50E-10 rsn: itol_upd
 Step    560 Time=  2.74000E+01 Dt=  5.00000E-02 [y] snes_conv_reason:   11
  newton =   1 [     561] linear =   122 [     65705] cuts =  0 [   0]
  --> max chng: dpmx=   5.8208E-10 dtmpmx=   1.1479E-10

== TH FLOW =====================================================================
  0 2r: 3.70E-13 2x: 0.00E+00 2u: 0.00E+00 ir: 1.71E-14 iu: 0.00E+00 rsn:   0
  1 2r: 3.78E-13 2x: 6.36E+07 2u: 9.34E-09 ir: 1.94E-14 iu: 4.70E-10 rsn: itol_upd
 Step    561 Time=  2.74500E+01 Dt=  5.00000E-02 [y] snes_conv_reason:   11
  newton =   1 [     562] linear =   117 [     65822] cuts =  0 [   0]
  --> max chng: dpmx=   4.6566E-10 dtmpmx=   1.1897E-10

== TH FLOW =====================================================================
  0 2r: 3.75E-13 2x: 0.00E+00 2u: 0.00E+00 ir: 1.94E-14 iu: 0.00E+00 rsn:   0
  1 2r: 3.80E-13 2x: 6.36E+07 2u: 1.07E-08 ir: 2.15E-14 iu: 5.17E-10 rsn: itol_upd
 Step    562 Time=  2.75000E+01 Dt=  5.00000E-02 [y] snes_conv_reason:   11
  newton =   1 [     563] linear =   111 [     65933] cuts =  0 [   0]
  --> max chng: dpmx=   4.6566E-10 dtmpmx=   1.0997E-10

 Wall Clock Time:  1.7634E+02 [sec]   2.9390E+00 [min]   4.8983E-02 [hr]
