
=================
  PFLOTRAN v4.0
=================

 Extent of Gridded Domain
  X: 2.5000000000000000 - 97.500000000000000
  Y: 2.5000000000000000 - 1277.5000000000000
  Z: 2.5000000000000000 - 2.5000000000000000


=+=+=+=+=+=+=+=+=+=+=+=+=+=+=+=+=+=+=+=+=+=+=+=+=+=+=+=+=+=+=+=+=+=+=+=+=+=+=+=+

  Initial Condition

--------------------------------------------------------------------------------
          Flow Condition:   initial
                  Region:   all
--------------------------------------------------------------------------------

  Flow Condition: initial
    Synchronize time with update: no
    Time units: yr
    Length units: m
      Datum:
        Dataset: Unnamed Ascii Dataset
          Type: dataset_ascii_type
          Transient: no
          Array Rank:  3

    Sub Condition: pressure
      Type: hydrostatic
      Gradient:
        Dataset: Unnamed Ascii Dataset
          Type: dataset_ascii_type
          Transient: no
          Array Rank:  3
      Data:
        Dataset: Unnamed Ascii Dataset
          Type: dataset_ascii_type
          Transient: no
          Array Rank:  1

    Sub Condition: temperature
      Type: dirichlet
      Gradient:
      Data:
        Dataset: Unnamed Ascii Dataset
          Type: dataset_ascii_type
          Transient: no
          Array Rank:  1

--------------------------------------------------------------------------------

=+=+=+=+=+=+=+=+=+=+=+=+=+=+=+=+=+=+=+=+=+=+=+=+=+=+=+=+=+=+=+=+=+=+=+=+=+=+=+=+

  Boundary Condition

--------------------------------------------------------------------------------
          Flow Condition:   initial
                  Region:   north
--------------------------------------------------------------------------------

  Flow Condition: initial
    Synchronize time with update: no
    Time units: yr
    Length units: m
      Datum:
        Dataset: Unnamed Ascii Dataset
          Type: dataset_ascii_type
          Transient: no
          Array Rank:  3

    Sub Condition: pressure
      Type: hydrostatic
      Gradient:
        Dataset: Unnamed Ascii Dataset
          Type: dataset_ascii_type
          Transient: no
          Array Rank:  3
      Data:
        Dataset: Unnamed Ascii Dataset
          Type: dataset_ascii_type
          Transient: no
          Array Rank:  1

    Sub Condition: temperature
      Type: dirichlet
      Gradient:
      Data:
        Dataset: Unnamed Ascii Dataset
          Type: dataset_ascii_type
          Transient: no
          Array Rank:  1

--------------------------------------------------------------------------------

=+=+=+=+=+=+=+=+=+=+=+=+=+=+=+=+=+=+=+=+=+=+=+=+=+=+=+=+=+=+=+=+=+=+=+=+=+=+=+=+

  Boundary Condition

--------------------------------------------------------------------------------
          Flow Condition:   initial
                  Region:   south
--------------------------------------------------------------------------------

  Flow Condition: initial
    Synchronize time with update: no
    Time units: yr
    Length units: m
      Datum:
        Dataset: Unnamed Ascii Dataset
          Type: dataset_ascii_type
          Transient: no
          Array Rank:  3

    Sub Condition: pressure
      Type: hydrostatic
      Gradient:
        Dataset: Unnamed Ascii Dataset
          Type: dataset_ascii_type
          Transient: no
          Array Rank:  3
      Data:
        Dataset: Unnamed Ascii Dataset
          Type: dataset_ascii_type
          Transient: no
          Array Rank:  1

    Sub Condition: temperature
      Type: dirichlet
      Gradient:
      Data:
        Dataset: Unnamed Ascii Dataset
          Type: dataset_ascii_type
          Transient: no
          Array Rank:  1

--------------------------------------------------------------------------------

=+=+=+=+=+=+=+=+=+=+=+=+=+=+=+=+=+=+=+=+=+=+=+=+=+=+=+=+=+=+=+=+=+=+=+=+=+=+=+=+

  Source Sink

--------------------------------------------------------------------------------
          Flow Condition:   injection
                  Region:   heatpump_inject1
--------------------------------------------------------------------------------

  Flow Condition: injection
    Synchronize time with update: no
    Time units: yr
    Length units: m
      Datum:

    Sub Condition: rate
      Type: scaled volumetric rate
      Gradient:
      Data:
        Dataset: Unnamed Ascii Dataset
          Type: dataset_ascii_type
          Is transient?: yes
          Number of times:      3
          Is cyclic?: no
          Buffer:
            Rank:  2
            Dims:    1   3
            Buffer Slice Size:   0
          Array Rank:  1

    Sub Condition: temperature
      Type: dirichlet
      Gradient:
      Data:
        Dataset: Unnamed Ascii Dataset
          Type: dataset_ascii_type
          Transient: no
          Array Rank:  1

--------------------------------------------------------------------------------

 Requested processors =     1

FLOW Time Stepper
acceleration: on
acceleration threshold: 5
number of ramp entries: 5
ramp entry #1: 2.0000
ramp entry #2: 2.0000
ramp entry #3: 2.0000
ramp entry #4: 2.0000
ramp entry #5: 2.0000
ramp entry #6: 1.8000
ramp entry #7: 1.6000
ramp entry #8: 1.4000
ramp entry #9: 1.2000
ramp entry #10: 1.0000
ramp entry #11: 1.0000
ramp entry #12: 1.0000
ramp entry #13: 1.0000
maximum number of steps: 999999
constant time steps threshold: 5
maximum number of cuts: 16
reduction factor: 5.000000E-01
maximum growth factor: 2.000000E+00

FLOW Newton Solver
atol: 1.000000E-50
rtol: 1.000000E-03
stol: 1.000000E-08
dtol: 1.000000E+04
maxnorm: 1.000000E+20
inftolres: -9.990000E+02
inftolupd: 1.000000E+00
inftolrelupd: -9.990000E+02
inftolsclres: -9.990000E+02
max iter: 50
min iter: 1
maxf: 10000
matrix type: baij
precond. matrix type: baij
inexact newton: off
print convergence: on
print detailed convergence: off
check infinity norm: on

FLOW Linear Solver
solver: bcgs
preconditioner: bjacobi
atol: 1.000000E-50
rtol: 1.000000E-05
dtol: 1.000000E+04
maximum iteration: 10000

== TH FLOW =====================================================================
 Step      1 Time=  1.00000E-05 Dt=  1.00000E-05 [y] snes_conv_reason:   11
  newton =   1 [       1] linear =    57 [        57] cuts =  0 [   0]
  --> max chng: dpmx=   2.2048E-02 dtmpmx=   2.0480E-09

== TH FLOW =====================================================================
 Step      2 Time=  3.00000E-05 Dt=  2.00000E-05 [y] snes_conv_reason:   11
  newton =   1 [       2] linear =    52 [       109] cuts =  0 [   0]
  --> max chng: dpmx=   7.4488E-03 dtmpmx=   4.0501E-09

== TH FLOW =====================================================================
 Step      3 Time=  7.00000E-05 Dt=  4.00000E-05 [y] snes_conv_reason:   11
  newton =   1 [       3] linear =    80 [       189] cuts =  0 [   0]
  --> max chng: dpmx=   1.3283E-03 dtmpmx=   8.0833E-09

== TH FLOW =====================================================================
 Step      4 Time=  1.50000E-04 Dt=  8.00000E-05 [y] snes_conv_reason:   11
  newton =   1 [       4] linear =    87 [       276] cuts =  0 [   0]
  --> max chng: dpmx=   1.2334E-04 dtmpmx=   1.6164E-08

== TH FLOW =====================================================================
 Step      5 Time=  3.10000E-04 Dt=  1.60000E-04 [y] snes_conv_reason:   11
  newton =   1 [       5] linear =   101 [       377] cuts =  0 [   0]
  --> max chng: dpmx=   5.8273E-06 dtmpmx=   3.2327E-08

== TH FLOW =====================================================================
 Step      6 Time=  6.30000E-04 Dt=  3.20000E-04 [y] snes_conv_reason:   11
  newton =   1 [       6] linear =   100 [       477] cuts =  0 [   0]
  --> max chng: dpmx=   1.2817E-07 dtmpmx=   6.4654E-08

== TH FLOW =====================================================================
 Step      7 Time=  1.27000E-03 Dt=  6.40000E-04 [y] snes_conv_reason:   11
  newton =   1 [       7] linear =   105 [       582] cuts =  0 [   0]
  --> max chng: dpmx=   2.6345E-07 dtmpmx=   1.2931E-07

== TH FLOW =====================================================================
 Step      8 Time=  2.55000E-03 Dt=  1.28000E-03 [y] snes_conv_reason:   11
  newton =   1 [       8] linear =   109 [       691] cuts =  0 [   0]
  --> max chng: dpmx=   5.3458E-07 dtmpmx=   2.5862E-07

== TH FLOW =====================================================================
 Step      9 Time=  5.11000E-03 Dt=  2.56000E-03 [y] snes_conv_reason:   11
  newton =   1 [       9] linear =   104 [       795] cuts =  0 [   0]
  --> max chng: dpmx=   1.1002E-06 dtmpmx=   5.1724E-07

== TH FLOW =====================================================================
 Step     10 Time=  1.02300E-02 Dt=  5.12000E-03 [y] snes_conv_reason:   11
  newton =   1 [      10] linear =    98 [       893] cuts =  0 [   0]
  --> max chng: dpmx=   2.3206E-06 dtmpmx=   1.0345E-06

== TH FLOW =====================================================================
 Step     11 Time=  2.04700E-02 Dt=  1.02400E-02 [y] snes_conv_reason:   11
  newton =   1 [      11] linear =   107 [      1000] cuts =  0 [   0]
  --> max chng: dpmx=   5.1396E-06 dtmpmx=   2.0689E-06

== TH FLOW =====================================================================
 Step     12 Time=  4.09500E-02 Dt=  2.04800E-02 [y] snes_conv_reason:   11
  newton =   1 [      12] linear =   104 [      1104] cuts =  0 [   0]
  --> max chng: dpmx=   1.2240E-05 dtmpmx=   4.1379E-06

== TH FLOW =====================================================================
 Step     13 Time=  8.19100E-02 Dt=  4.09600E-02 [y] snes_conv_reason:   11
  newton =   1 [      13] linear =   105 [      1209] cuts =  0 [   0]
  --> max chng: dpmx=   3.2240E-05 dtmpmx=   8.2758E-06

== TH FLOW =====================================================================
 Step     14 Time=  1.00000E-01 Dt=  1.80900E-02 [y] snes_conv_reason:   11
  newton =   1 [      14] linear =   108 [      1317] cuts =  0 [   0]
  --> max chng: dpmx=   1.5757E-05 dtmpmx=   3.6550E-06

== TH FLOW =====================================================================
 Step     15 Time=  1.50000E-01 Dt=  5.00000E-02 [y] snes_conv_reason:   11
  newton =   1 [      15] linear =   104 [      1421] cuts =  0 [   0]
  --> max chng: dpmx=   5.5010E-05 dtmpmx=   1.0102E-05

== TH FLOW =====================================================================
 Step     16 Time=  2.00000E-01 Dt=  5.00000E-02 [y] snes_conv_reason:   11
  newton =   1 [      16] linear =   106 [      1527] cuts =  0 [   0]
  --> max chng: dpmx=   6.6346E-05 dtmpmx=   1.0102E-05

== TH FLOW =====================================================================
 Step     17 Time=  2.50000E-01 Dt=  5.00000E-02 [y] snes_conv_reason:   11
  newton =   3 [      19] linear =   297 [      1824] cuts =  0 [   0]
  --> max chng: dpmx=   4.4589E+02 dtmpmx=   3.4996E+00

== TH FLOW =====================================================================
 Step     18 Time=  3.00000E-01 Dt=  5.00000E-02 [y] snes_conv_reason:   11
  newton =   2 [      21] linear =   198 [      2022] cuts =  0 [   0]
  --> max chng: dpmx=   3.2399E+00 dtmpmx=   1.4137E+00

== TH FLOW =====================================================================
 Step     19 Time=  3.50000E-01 Dt=  5.00000E-02 [y] snes_conv_reason:   11
  newton =   2 [      23] linear =   215 [      2237] cuts =  0 [   0]
  --> max chng: dpmx=   1.7207E+00 dtmpmx=   9.7015E-01

== TH FLOW =====================================================================
 Step     20 Time=  4.00000E-01 Dt=  5.00000E-02 [y] snes_conv_reason:   11
  newton =   2 [      25] linear =   211 [      2448] cuts =  0 [   0]
  --> max chng: dpmx=   1.5929E+00 dtmpmx=   7.6304E-01

== TH FLOW =====================================================================
 Step     21 Time=  4.50000E-01 Dt=  5.00000E-02 [y] snes_conv_reason:   11
  newton =   2 [      27] linear =   210 [      2658] cuts =  0 [   0]
  --> max chng: dpmx=   1.5036E+00 dtmpmx=   6.3859E-01

== TH FLOW =====================================================================
 Step     22 Time=  5.00000E-01 Dt=  5.00000E-02 [y] snes_conv_reason:    3
  newton =   1 [      28] linear =   111 [      2769] cuts =  0 [   0]
  --> max chng: dpmx=   1.4394E+00 dtmpmx=   5.7508E-01

== TH FLOW =====================================================================
 Step     23 Time=  5.50000E-01 Dt=  5.00000E-02 [y] snes_conv_reason:    3
  newton =   1 [      29] linear =   106 [      2875] cuts =  0 [   0]
  --> max chng: dpmx=   1.3846E+00 dtmpmx=   5.1842E-01

== TH FLOW =====================================================================
 Step     24 Time=  6.00000E-01 Dt=  5.00000E-02 [y] snes_conv_reason:    3
  newton =   1 [      30] linear =   103 [      2978] cuts =  0 [   0]
  --> max chng: dpmx=   1.3427E+00 dtmpmx=   4.6809E-01

== TH FLOW =====================================================================
 Step     25 Time=  6.50000E-01 Dt=  5.00000E-02 [y] snes_conv_reason:    3
  newton =   1 [      31] linear =   106 [      3084] cuts =  0 [   0]
  --> max chng: dpmx=   1.3065E+00 dtmpmx=   4.3905E-01

== TH FLOW =====================================================================
 Step     26 Time=  7.00000E-01 Dt=  5.00000E-02 [y] snes_conv_reason:    3
  newton =   1 [      32] linear =    95 [      3179] cuts =  0 [   0]
  --> max chng: dpmx=   1.2766E+00 dtmpmx=   4.1090E-01

== TH FLOW =====================================================================
 Step     27 Time=  7.50000E-01 Dt=  5.00000E-02 [y] snes_conv_reason:    3
  newton =   1 [      33] linear =    93 [      3272] cuts =  0 [   0]
  --> max chng: dpmx=   1.2498E+00 dtmpmx=   3.8235E-01

== TH FLOW =====================================================================
 Step     28 Time=  8.00000E-01 Dt=  5.00000E-02 [y] snes_conv_reason:    3
  newton =   1 [      34] linear =    96 [      3368] cuts =  0 [   0]
  --> max chng: dpmx=   1.2284E+00 dtmpmx=   3.6599E-01

== TH FLOW =====================================================================
 Step     29 Time=  8.50000E-01 Dt=  5.00000E-02 [y] snes_conv_reason:    3
  newton =   1 [      35] linear =   101 [      3469] cuts =  0 [   0]
  --> max chng: dpmx=   1.2094E+00 dtmpmx=   3.4779E-01

== TH FLOW =====================================================================
 Step     30 Time=  9.00000E-01 Dt=  5.00000E-02 [y] snes_conv_reason:    3
  newton =   1 [      36] linear =   108 [      3577] cuts =  0 [   0]
  --> max chng: dpmx=   1.1925E+00 dtmpmx=   3.2993E-01

== TH FLOW =====================================================================
 Step     31 Time=  9.50000E-01 Dt=  5.00000E-02 [y] snes_conv_reason:    3
  newton =   1 [      37] linear =   106 [      3683] cuts =  0 [   0]
  --> max chng: dpmx=   1.1763E+00 dtmpmx=   3.1852E-01

== TH FLOW =====================================================================
 Step     32 Time=  1.00000E+00 Dt=  5.00000E-02 [y] snes_conv_reason:    3
  newton =   1 [      38] linear =   102 [      3785] cuts =  0 [   0]
  --> max chng: dpmx=   1.1617E+00 dtmpmx=   3.0505E-01

== TH FLOW =====================================================================
 Step     33 Time=  1.05000E+00 Dt=  5.00000E-02 [y] snes_conv_reason:    3
  newton =   1 [      39] linear =   103 [      3888] cuts =  0 [   0]
  --> max chng: dpmx=   1.1477E+00 dtmpmx=   2.9349E-01

== TH FLOW =====================================================================
 Step     34 Time=  1.10000E+00 Dt=  5.00000E-02 [y] snes_conv_reason:    3
  newton =   1 [      40] linear =   104 [      3992] cuts =  0 [   0]
  --> max chng: dpmx=   1.1348E+00 dtmpmx=   2.8435E-01

== TH FLOW =====================================================================
 Step     35 Time=  1.15000E+00 Dt=  5.00000E-02 [y] snes_conv_reason:    3
  newton =   1 [      41] linear =   105 [      4097] cuts =  0 [   0]
  --> max chng: dpmx=   1.1226E+00 dtmpmx=   2.7360E-01

== TH FLOW =====================================================================
 Step     36 Time=  1.20000E+00 Dt=  5.00000E-02 [y] snes_conv_reason:    3
  newton =   1 [      42] linear =   104 [      4201] cuts =  0 [   0]
  --> max chng: dpmx=   1.1123E+00 dtmpmx=   2.6590E-01

== TH FLOW =====================================================================
 Step     37 Time=  1.25000E+00 Dt=  5.00000E-02 [y] snes_conv_reason:    3
  newton =   1 [      43] linear =   103 [      4304] cuts =  0 [   0]
  --> max chng: dpmx=   1.1027E+00 dtmpmx=   2.5817E-01

== TH FLOW =====================================================================
 Step     38 Time=  1.30000E+00 Dt=  5.00000E-02 [y] snes_conv_reason:    3
  newton =   1 [      44] linear =   100 [      4404] cuts =  0 [   0]
  --> max chng: dpmx=   1.0933E+00 dtmpmx=   2.4937E-01

== TH FLOW =====================================================================
 Step     39 Time=  1.35000E+00 Dt=  5.00000E-02 [y] snes_conv_reason:    3
  newton =   1 [      45] linear =   107 [      4511] cuts =  0 [   0]
  --> max chng: dpmx=   1.0838E+00 dtmpmx=   2.4399E-01

== TH FLOW =====================================================================
 Step     40 Time=  1.40000E+00 Dt=  5.00000E-02 [y] snes_conv_reason:    3
  newton =   1 [      46] linear =   105 [      4616] cuts =  0 [   0]
  --> max chng: dpmx=   1.0748E+00 dtmpmx=   2.3725E-01

== TH FLOW =====================================================================
 Step     41 Time=  1.45000E+00 Dt=  5.00000E-02 [y] snes_conv_reason:    3
  newton =   1 [      47] linear =   103 [      4719] cuts =  0 [   0]
  --> max chng: dpmx=   1.0661E+00 dtmpmx=   2.3095E-01

== TH FLOW =====================================================================
 Step     42 Time=  1.50000E+00 Dt=  5.00000E-02 [y] snes_conv_reason:    3
  newton =   1 [      48] linear =    90 [      4809] cuts =  0 [   0]
  --> max chng: dpmx=   1.0582E+00 dtmpmx=   2.2602E-01

== TH FLOW =====================================================================
 Step     43 Time=  1.55000E+00 Dt=  5.00000E-02 [y] snes_conv_reason:    3
  newton =   1 [      49] linear =   108 [      4917] cuts =  0 [   0]
  --> max chng: dpmx=   1.0515E+00 dtmpmx=   2.2000E-01

== TH FLOW =====================================================================
 Step     44 Time=  1.60000E+00 Dt=  5.00000E-02 [y] snes_conv_reason:    3
  newton =   1 [      50] linear =    89 [      5006] cuts =  0 [   0]
  --> max chng: dpmx=   1.0436E+00 dtmpmx=   2.1549E-01

== TH FLOW =====================================================================
 Step     45 Time=  1.65000E+00 Dt=  5.00000E-02 [y] snes_conv_reason:    3
  newton =   1 [      51] linear =    99 [      5105] cuts =  0 [   0]
  --> max chng: dpmx=   1.0369E+00 dtmpmx=   2.1092E-01

== TH FLOW =====================================================================
 Step     46 Time=  1.70000E+00 Dt=  5.00000E-02 [y] snes_conv_reason:    3
  newton =   1 [      52] linear =   104 [      5209] cuts =  0 [   0]
  --> max chng: dpmx=   1.0293E+00 dtmpmx=   2.0560E-01

== TH FLOW =====================================================================
 Step     47 Time=  1.75000E+00 Dt=  5.00000E-02 [y] snes_conv_reason:    3
  newton =   1 [      53] linear =   103 [      5312] cuts =  0 [   0]
  --> max chng: dpmx=   1.0226E+00 dtmpmx=   2.0225E-01

== TH FLOW =====================================================================
 Step     48 Time=  1.80000E+00 Dt=  5.00000E-02 [y] snes_conv_reason:    3
  newton =   1 [      54] linear =   103 [      5415] cuts =  0 [   0]
  --> max chng: dpmx=   1.0168E+00 dtmpmx=   1.9799E-01

== TH FLOW =====================================================================
 Step     49 Time=  1.85000E+00 Dt=  5.00000E-02 [y] snes_conv_reason:    3
  newton =   1 [      55] linear =   103 [      5518] cuts =  0 [   0]
  --> max chng: dpmx=   1.0103E+00 dtmpmx=   1.9399E-01

== TH FLOW =====================================================================
 Step     50 Time=  1.90000E+00 Dt=  5.00000E-02 [y] snes_conv_reason:    3
  newton =   1 [      56] linear =   102 [      5620] cuts =  0 [   0]
  --> max chng: dpmx=   1.0041E+00 dtmpmx=   1.9075E-01

== TH FLOW =====================================================================
 Step     51 Time=  1.95000E+00 Dt=  5.00000E-02 [y] snes_conv_reason:   11
  newton =   1 [      57] linear =   103 [      5723] cuts =  0 [   0]
  --> max chng: dpmx=   9.9801E-01 dtmpmx=   1.8674E-01

== TH FLOW =====================================================================
 Step     52 Time=  2.00000E+00 Dt=  5.00000E-02 [y] snes_conv_reason:   11
  newton =   1 [      58] linear =   104 [      5827] cuts =  0 [   0]
  --> max chng: dpmx=   9.9198E-01 dtmpmx=   1.8376E-01

== TH FLOW =====================================================================
 Step     53 Time=  2.05000E+00 Dt=  5.00000E-02 [y] snes_conv_reason:   11
  newton =   1 [      59] linear =   108 [      5935] cuts =  0 [   0]
  --> max chng: dpmx=   9.8660E-01 dtmpmx=   1.8063E-01

== TH FLOW =====================================================================
 Step     54 Time=  2.10000E+00 Dt=  5.00000E-02 [y] snes_conv_reason:   11
  newton =   1 [      60] linear =   102 [      6037] cuts =  0 [   0]
  --> max chng: dpmx=   9.8094E-01 dtmpmx=   1.7704E-01

== TH FLOW =====================================================================
 Step     55 Time=  2.15000E+00 Dt=  5.00000E-02 [y] snes_conv_reason:   11
  newton =   1 [      61] linear =   100 [      6137] cuts =  0 [   0]
  --> max chng: dpmx=   9.7539E-01 dtmpmx=   1.7467E-01

== TH FLOW =====================================================================
 Step     56 Time=  2.20000E+00 Dt=  5.00000E-02 [y] snes_conv_reason:   11
  newton =   1 [      62] linear =    99 [      6236] cuts =  0 [   0]
  --> max chng: dpmx=   9.6960E-01 dtmpmx=   1.7164E-01

== TH FLOW =====================================================================
 Step     57 Time=  2.25000E+00 Dt=  5.00000E-02 [y] snes_conv_reason:   11
  newton =   1 [      63] linear =   101 [      6337] cuts =  0 [   0]
  --> max chng: dpmx=   9.6494E-01 dtmpmx=   1.6886E-01

== TH FLOW =====================================================================
 Step     58 Time=  2.30000E+00 Dt=  5.00000E-02 [y] snes_conv_reason:   11
  newton =   1 [      64] linear =   103 [      6440] cuts =  0 [   0]
  --> max chng: dpmx=   9.5948E-01 dtmpmx=   1.6650E-01

== TH FLOW =====================================================================
 Step     59 Time=  2.35000E+00 Dt=  5.00000E-02 [y] snes_conv_reason:   11
  newton =   1 [      65] linear =   102 [      6542] cuts =  0 [   0]
  --> max chng: dpmx=   9.5395E-01 dtmpmx=   1.6357E-01

== TH FLOW =====================================================================
 Step     60 Time=  2.40000E+00 Dt=  5.00000E-02 [y] snes_conv_reason:   11
  newton =   1 [      66] linear =   105 [      6647] cuts =  0 [   0]
  --> max chng: dpmx=   9.4930E-01 dtmpmx=   1.6146E-01

== TH FLOW =====================================================================
 Step     61 Time=  2.45000E+00 Dt=  5.00000E-02 [y] snes_conv_reason:   11
  newton =   1 [      67] linear =   101 [      6748] cuts =  0 [   0]
  --> max chng: dpmx=   9.4379E-01 dtmpmx=   1.5912E-01

== TH FLOW =====================================================================
 Step     62 Time=  2.50000E+00 Dt=  5.00000E-02 [y] snes_conv_reason:   11
  newton =   1 [      68] linear =   101 [      6849] cuts =  0 [   0]
  --> max chng: dpmx=   9.3931E-01 dtmpmx=   1.5653E-01

== TH FLOW =====================================================================
 Step     63 Time=  2.55000E+00 Dt=  5.00000E-02 [y] snes_conv_reason:   11
  newton =   1 [      69] linear =    98 [      6947] cuts =  0 [   0]
  --> max chng: dpmx=   9.3413E-01 dtmpmx=   1.5472E-01

== TH FLOW =====================================================================
 Step     64 Time=  2.60000E+00 Dt=  5.00000E-02 [y] snes_conv_reason:   11
  newton =   1 [      70] linear =    97 [      7044] cuts =  0 [   0]
  --> max chng: dpmx=   9.2994E-01 dtmpmx=   1.5241E-01

== TH FLOW =====================================================================
 Step     65 Time=  2.65000E+00 Dt=  5.00000E-02 [y] snes_conv_reason:   11
  newton =   1 [      71] linear =   102 [      7146] cuts =  0 [   0]
  --> max chng: dpmx=   9.2462E-01 dtmpmx=   1.5037E-01

== TH FLOW =====================================================================
 Step     66 Time=  2.70000E+00 Dt=  5.00000E-02 [y] snes_conv_reason:   11
  newton =   1 [      72] linear =   105 [      7251] cuts =  0 [   0]
  --> max chng: dpmx=   9.1995E-01 dtmpmx=   1.4854E-01

== TH FLOW =====================================================================
 Step     67 Time=  2.75000E+00 Dt=  5.00000E-02 [y] snes_conv_reason:   11
  newton =   1 [      73] linear =   101 [      7352] cuts =  0 [   0]
  --> max chng: dpmx=   9.1524E-01 dtmpmx=   1.4627E-01

== TH FLOW =====================================================================
 Step     68 Time=  2.80000E+00 Dt=  5.00000E-02 [y] snes_conv_reason:   11
  newton =   1 [      74] linear =   101 [      7453] cuts =  0 [   0]
  --> max chng: dpmx=   9.1083E-01 dtmpmx=   1.4470E-01

== TH FLOW =====================================================================
 Step     69 Time=  2.85000E+00 Dt=  5.00000E-02 [y] snes_conv_reason:   11
  newton =   1 [      75] linear =   100 [      7553] cuts =  0 [   0]
  --> max chng: dpmx=   9.0639E-01 dtmpmx=   1.4286E-01

== TH FLOW =====================================================================
 Step     70 Time=  2.90000E+00 Dt=  5.00000E-02 [y] snes_conv_reason:   11
  newton =   1 [      76] linear =   100 [      7653] cuts =  0 [   0]
  --> max chng: dpmx=   9.0126E-01 dtmpmx=   1.4090E-01

== TH FLOW =====================================================================
 Step     71 Time=  2.95000E+00 Dt=  5.00000E-02 [y] snes_conv_reason:   11
  newton =   1 [      77] linear =   103 [      7756] cuts =  0 [   0]
  --> max chng: dpmx=   8.9746E-01 dtmpmx=   1.3945E-01

== TH FLOW =====================================================================
 Step     72 Time=  3.00000E+00 Dt=  5.00000E-02 [y] snes_conv_reason:   11
  newton =   1 [      78] linear =   103 [      7859] cuts =  0 [   0]
  --> max chng: dpmx=   8.9288E-01 dtmpmx=   1.3761E-01

== TH FLOW =====================================================================
 Step     73 Time=  3.05000E+00 Dt=  5.00000E-02 [y] snes_conv_reason:   11
  newton =   1 [      79] linear =   105 [      7964] cuts =  0 [   0]
  --> max chng: dpmx=   8.8804E-01 dtmpmx=   1.3606E-01

== TH FLOW =====================================================================
 Step     74 Time=  3.10000E+00 Dt=  5.00000E-02 [y] snes_conv_reason:   11
  newton =   1 [      80] linear =   104 [      8068] cuts =  0 [   0]
  --> max chng: dpmx=   8.8379E-01 dtmpmx=   1.3458E-01

== TH FLOW =====================================================================
 Step     75 Time=  3.15000E+00 Dt=  5.00000E-02 [y] snes_conv_reason:   11
  newton =   1 [      81] linear =   102 [      8170] cuts =  0 [   0]
  --> max chng: dpmx=   8.7941E-01 dtmpmx=   1.3275E-01

== TH FLOW =====================================================================
 Step     76 Time=  3.20000E+00 Dt=  5.00000E-02 [y] snes_conv_reason:   11
  newton =   1 [      82] linear =   103 [      8273] cuts =  0 [   0]
  --> max chng: dpmx=   8.7550E-01 dtmpmx=   1.3153E-01

== TH FLOW =====================================================================
 Step     77 Time=  3.25000E+00 Dt=  5.00000E-02 [y] snes_conv_reason:   11
  newton =   1 [      83] linear =   106 [      8379] cuts =  0 [   0]
  --> max chng: dpmx=   8.7095E-01 dtmpmx=   1.3003E-01

== TH FLOW =====================================================================
 Step     78 Time=  3.30000E+00 Dt=  5.00000E-02 [y] snes_conv_reason:   11
  newton =   1 [      84] linear =    92 [      8471] cuts =  0 [   0]
  --> max chng: dpmx=   8.6679E-01 dtmpmx=   1.2850E-01

== TH FLOW =====================================================================
 Step     79 Time=  3.35000E+00 Dt=  5.00000E-02 [y] snes_conv_reason:   11
  newton =   1 [      85] linear =    95 [      8566] cuts =  0 [   0]
  --> max chng: dpmx=   8.6215E-01 dtmpmx=   1.2730E-01

== TH FLOW =====================================================================
 Step     80 Time=  3.40000E+00 Dt=  5.00000E-02 [y] snes_conv_reason:   11
  newton =   1 [      86] linear =   101 [      8667] cuts =  0 [   0]
  --> max chng: dpmx=   8.5865E-01 dtmpmx=   1.2579E-01

== TH FLOW =====================================================================
 Step     81 Time=  3.45000E+00 Dt=  5.00000E-02 [y] snes_conv_reason:   11
  newton =   1 [      87] linear =   105 [      8772] cuts =  0 [   0]
  --> max chng: dpmx=   8.5436E-01 dtmpmx=   1.2456E-01

== TH FLOW =====================================================================
 Step     82 Time=  3.50000E+00 Dt=  5.00000E-02 [y] snes_conv_reason:   11
  newton =   1 [      88] linear =   103 [      8875] cuts =  0 [   0]
  --> max chng: dpmx=   8.4966E-01 dtmpmx=   1.2333E-01

== TH FLOW =====================================================================
 Step     83 Time=  3.55000E+00 Dt=  5.00000E-02 [y] snes_conv_reason:   11
  newton =   1 [      89] linear =   102 [      8977] cuts =  0 [   0]
  --> max chng: dpmx=   8.4571E-01 dtmpmx=   1.2182E-01

== TH FLOW =====================================================================
 Step     84 Time=  3.60000E+00 Dt=  5.00000E-02 [y] snes_conv_reason:   11
  newton =   1 [      90] linear =   102 [      9079] cuts =  0 [   0]
  --> max chng: dpmx=   8.4195E-01 dtmpmx=   1.2085E-01

== TH FLOW =====================================================================
 Step     85 Time=  3.65000E+00 Dt=  5.00000E-02 [y] snes_conv_reason:   11
  newton =   1 [      91] linear =   102 [      9181] cuts =  0 [   0]
  --> max chng: dpmx=   8.3763E-01 dtmpmx=   1.1959E-01

== TH FLOW =====================================================================
 Step     86 Time=  3.70000E+00 Dt=  5.00000E-02 [y] snes_conv_reason:   11
  newton =   1 [      92] linear =   101 [      9282] cuts =  0 [   0]
  --> max chng: dpmx=   8.3354E-01 dtmpmx=   1.1836E-01

== TH FLOW =====================================================================
 Step     87 Time=  3.75000E+00 Dt=  5.00000E-02 [y] snes_conv_reason:   11
  newton =   1 [      93] linear =   103 [      9385] cuts =  0 [   0]
  --> max chng: dpmx=   8.2953E-01 dtmpmx=   1.1735E-01

== TH FLOW =====================================================================
 Step     88 Time=  3.80000E+00 Dt=  5.00000E-02 [y] snes_conv_reason:   11
  newton =   1 [      94] linear =   104 [      9489] cuts =  0 [   0]
  --> max chng: dpmx=   8.2560E-01 dtmpmx=   1.1607E-01

== TH FLOW =====================================================================
 Step     89 Time=  3.85000E+00 Dt=  5.00000E-02 [y] snes_conv_reason:   11
  newton =   1 [      95] linear =   101 [      9590] cuts =  0 [   0]
  --> max chng: dpmx=   8.2239E-01 dtmpmx=   1.1508E-01

== TH FLOW =====================================================================
 Step     90 Time=  3.90000E+00 Dt=  5.00000E-02 [y] snes_conv_reason:   11
  newton =   1 [      96] linear =    99 [      9689] cuts =  0 [   0]
  --> max chng: dpmx=   8.1705E-01 dtmpmx=   1.1403E-01

== TH FLOW =====================================================================
 Step     91 Time=  3.95000E+00 Dt=  5.00000E-02 [y] snes_conv_reason:   11
  newton =   1 [      97] linear =   101 [      9790] cuts =  0 [   0]
  --> max chng: dpmx=   8.1338E-01 dtmpmx=   1.1281E-01

== TH FLOW =====================================================================
 Step     92 Time=  4.00000E+00 Dt=  5.00000E-02 [y] snes_conv_reason:   11
  newton =   1 [      98] linear =   100 [      9890] cuts =  0 [   0]
  --> max chng: dpmx=   8.0976E-01 dtmpmx=   1.1197E-01

== TH FLOW =====================================================================
 Step     93 Time=  4.05000E+00 Dt=  5.00000E-02 [y] snes_conv_reason:   11
  newton =   1 [      99] linear =   101 [      9991] cuts =  0 [   0]
  --> max chng: dpmx=   8.0562E-01 dtmpmx=   1.1089E-01

== TH FLOW =====================================================================
 Step     94 Time=  4.10000E+00 Dt=  5.00000E-02 [y] snes_conv_reason:   11
  newton =   1 [     100] linear =   101 [     10092] cuts =  0 [   0]
  --> max chng: dpmx=   8.0162E-01 dtmpmx=   1.0989E-01

== TH FLOW =====================================================================
 Step     95 Time=  4.15000E+00 Dt=  5.00000E-02 [y] snes_conv_reason:   11
  newton =   1 [     101] linear =   102 [     10194] cuts =  0 [   0]
  --> max chng: dpmx=   7.9803E-01 dtmpmx=   1.0901E-01

== TH FLOW =====================================================================
 Step     96 Time=  4.20000E+00 Dt=  5.00000E-02 [y] snes_conv_reason:   11
  newton =   1 [     102] linear =    99 [     10293] cuts =  0 [   0]
  --> max chng: dpmx=   7.9421E-01 dtmpmx=   1.0791E-01

== TH FLOW =====================================================================
 Step     97 Time=  4.25000E+00 Dt=  5.00000E-02 [y] snes_conv_reason:   11
  newton =   1 [     103] linear =    99 [     10392] cuts =  0 [   0]
  --> max chng: dpmx=   7.8990E-01 dtmpmx=   1.0710E-01

== TH FLOW =====================================================================
 Step     98 Time=  4.30000E+00 Dt=  5.00000E-02 [y] snes_conv_reason:   11
  newton =   1 [     104] linear =    93 [     10485] cuts =  0 [   0]
  --> max chng: dpmx=   7.8670E-01 dtmpmx=   1.0619E-01

== TH FLOW =====================================================================
 Step     99 Time=  4.35000E+00 Dt=  5.00000E-02 [y] snes_conv_reason:   11
  newton =   1 [     105] linear =    98 [     10583] cuts =  0 [   0]
  --> max chng: dpmx=   7.8211E-01 dtmpmx=   1.0518E-01

== TH FLOW =====================================================================
 Step    100 Time=  4.40000E+00 Dt=  5.00000E-02 [y] snes_conv_reason:   11
  newton =   1 [     106] linear =   105 [     10688] cuts =  0 [   0]
  --> max chng: dpmx=   7.7860E-01 dtmpmx=   1.0445E-01

== TH FLOW =====================================================================
 Step    101 Time=  4.45000E+00 Dt=  5.00000E-02 [y] snes_conv_reason:   11
  newton =   1 [     107] linear =   102 [     10790] cuts =  0 [   0]
  --> max chng: dpmx=   7.7519E-01 dtmpmx=   1.0351E-01

== TH FLOW =====================================================================
 Step    102 Time=  4.50000E+00 Dt=  5.00000E-02 [y] snes_conv_reason:   11
  newton =   1 [     108] linear =   107 [     10897] cuts =  0 [   0]
  --> max chng: dpmx=   7.7026E-01 dtmpmx=   1.0267E-01

== TH FLOW =====================================================================
 Step    103 Time=  4.55000E+00 Dt=  5.00000E-02 [y] snes_conv_reason:   11
  newton =   1 [     109] linear =   100 [     10997] cuts =  0 [   0]
  --> max chng: dpmx=   7.6713E-01 dtmpmx=   1.0190E-01

== TH FLOW =====================================================================
 Step    104 Time=  4.60000E+00 Dt=  5.00000E-02 [y] snes_conv_reason:   11
  newton =   1 [     110] linear =    96 [     11093] cuts =  0 [   0]
  --> max chng: dpmx=   7.6383E-01 dtmpmx=   1.0095E-01

== TH FLOW =====================================================================
 Step    105 Time=  4.65000E+00 Dt=  5.00000E-02 [y] snes_conv_reason:   11
  newton =   1 [     111] linear =   101 [     11194] cuts =  0 [   0]
  --> max chng: dpmx=   7.5905E-01 dtmpmx=   1.0027E-01

== TH FLOW =====================================================================
 Step    106 Time=  4.70000E+00 Dt=  5.00000E-02 [y] snes_conv_reason:   11
  newton =   1 [     112] linear =   102 [     11296] cuts =  0 [   0]
  --> max chng: dpmx=   7.5594E-01 dtmpmx=   9.9474E-02

== TH FLOW =====================================================================
 Step    107 Time=  4.75000E+00 Dt=  5.00000E-02 [y] snes_conv_reason:   11
  newton =   1 [     113] linear =   101 [     11397] cuts =  0 [   0]
  --> max chng: dpmx=   7.5193E-01 dtmpmx=   9.8620E-02

== TH FLOW =====================================================================
 Step    108 Time=  4.80000E+00 Dt=  5.00000E-02 [y] snes_conv_reason:   11
  newton =   1 [     114] linear =    98 [     11495] cuts =  0 [   0]
  --> max chng: dpmx=   7.4816E-01 dtmpmx=   9.7970E-02

== TH FLOW =====================================================================
 Step    109 Time=  4.85000E+00 Dt=  5.00000E-02 [y] snes_conv_reason:   11
  newton =   1 [     115] linear =   102 [     11597] cuts =  0 [   0]
  --> max chng: dpmx=   7.4442E-01 dtmpmx=   9.7145E-02

== TH FLOW =====================================================================
 Step    110 Time=  4.90000E+00 Dt=  5.00000E-02 [y] snes_conv_reason:   11
  newton =   1 [     116] linear =   101 [     11698] cuts =  0 [   0]
  --> max chng: dpmx=   7.4089E-01 dtmpmx=   9.6442E-02

== TH FLOW =====================================================================
 Step    111 Time=  4.95000E+00 Dt=  5.00000E-02 [y] snes_conv_reason:   11
  newton =   1 [     117] linear =   101 [     11799] cuts =  0 [   0]
  --> max chng: dpmx=   7.3731E-01 dtmpmx=   9.5760E-02

== TH FLOW =====================================================================
 Step    112 Time=  5.00000E+00 Dt=  5.00000E-02 [y] snes_conv_reason:   11
  newton =   1 [     118] linear =   103 [     11902] cuts =  0 [   0]
  --> max chng: dpmx=   7.3313E-01 dtmpmx=   9.4913E-02

== TH FLOW =====================================================================
 Step    113 Time=  5.05000E+00 Dt=  5.00000E-02 [y] snes_conv_reason:   11
  newton =   1 [     119] linear =   102 [     12004] cuts =  0 [   0]
  --> max chng: dpmx=   7.2972E-01 dtmpmx=   9.4346E-02

== TH FLOW =====================================================================
 Step    114 Time=  5.10000E+00 Dt=  5.00000E-02 [y] snes_conv_reason:   11
  newton =   1 [     120] linear =   103 [     12107] cuts =  0 [   0]
  --> max chng: dpmx=   7.2580E-01 dtmpmx=   9.3635E-02

== TH FLOW =====================================================================
 Step    115 Time=  5.15000E+00 Dt=  5.00000E-02 [y] snes_conv_reason:   11
  newton =   1 [     121] linear =   104 [     12211] cuts =  0 [   0]
  --> max chng: dpmx=   7.2242E-01 dtmpmx=   9.2909E-02

== TH FLOW =====================================================================
 Step    116 Time=  5.20000E+00 Dt=  5.00000E-02 [y] snes_conv_reason:   11
  newton =   1 [     122] linear =   105 [     12316] cuts =  0 [   0]
  --> max chng: dpmx=   7.1899E-01 dtmpmx=   9.2328E-02

== TH FLOW =====================================================================
 Step    117 Time=  5.25000E+00 Dt=  5.00000E-02 [y] snes_conv_reason:   11
  newton =   1 [     123] linear =   103 [     12419] cuts =  0 [   0]
  --> max chng: dpmx=   7.1430E-01 dtmpmx=   9.1593E-02

== TH FLOW =====================================================================
 Step    118 Time=  5.30000E+00 Dt=  5.00000E-02 [y] snes_conv_reason:   11
  newton =   1 [     124] linear =   101 [     12520] cuts =  0 [   0]
  --> max chng: dpmx=   7.1143E-01 dtmpmx=   9.0994E-02

== TH FLOW =====================================================================
 Step    119 Time=  5.35000E+00 Dt=  5.00000E-02 [y] snes_conv_reason:   11
  newton =   1 [     125] linear =    98 [     12618] cuts =  0 [   0]
  --> max chng: dpmx=   7.0729E-01 dtmpmx=   9.0382E-02

== TH FLOW =====================================================================
 Step    120 Time=  5.40000E+00 Dt=  5.00000E-02 [y] snes_conv_reason:   11
  newton =   1 [     126] linear =    99 [     12717] cuts =  0 [   0]
  --> max chng: dpmx=   7.0393E-01 dtmpmx=   8.9639E-02

== TH FLOW =====================================================================
 Step    121 Time=  5.45000E+00 Dt=  5.00000E-02 [y] snes_conv_reason:   11
  newton =   1 [     127] linear =   100 [     12817] cuts =  0 [   0]
  --> max chng: dpmx=   7.0017E-01 dtmpmx=   8.9144E-02

== TH FLOW =====================================================================
 Step    122 Time=  5.50000E+00 Dt=  5.00000E-02 [y] snes_conv_reason:   11
  newton =   1 [     128] linear =    94 [     12911] cuts =  0 [   0]
  --> max chng: dpmx=   6.9671E-01 dtmpmx=   8.8507E-02

== TH FLOW =====================================================================
 Step    123 Time=  5.55000E+00 Dt=  5.00000E-02 [y] snes_conv_reason:   11
  newton =   1 [     129] linear =   104 [     13015] cuts =  0 [   0]
  --> max chng: dpmx=   6.9304E-01 dtmpmx=   8.7883E-02

== TH FLOW =====================================================================
 Step    124 Time=  5.60000E+00 Dt=  5.00000E-02 [y] snes_conv_reason:   11
  newton =   1 [     130] linear =   103 [     13118] cuts =  0 [   0]
  --> max chng: dpmx=   6.8941E-01 dtmpmx=   8.7357E-02

== TH FLOW =====================================================================
 Step    125 Time=  5.65000E+00 Dt=  5.00000E-02 [y] snes_conv_reason:   11
  newton =   1 [     131] linear =    99 [     13217] cuts =  0 [   0]
  --> max chng: dpmx=   6.8550E-01 dtmpmx=   8.6697E-02

== TH FLOW =====================================================================
 Step    126 Time=  5.70000E+00 Dt=  5.00000E-02 [y] snes_conv_reason:   11
  newton =   1 [     132] linear =   100 [     13317] cuts =  0 [   0]
  --> max chng: dpmx=   6.8231E-01 dtmpmx=   8.6182E-02

== TH FLOW =====================================================================
 Step    127 Time=  5.75000E+00 Dt=  5.00000E-02 [y] snes_conv_reason:   11
  newton =   1 [     133] linear =   103 [     13420] cuts =  0 [   0]
  --> max chng: dpmx=   6.7868E-01 dtmpmx=   8.5629E-02

== TH FLOW =====================================================================
 Step    128 Time=  5.80000E+00 Dt=  5.00000E-02 [y] snes_conv_reason:   11
  newton =   1 [     134] linear =    91 [     13511] cuts =  0 [   0]
  --> max chng: dpmx=   6.7475E-01 dtmpmx=   8.4986E-02

== TH FLOW =====================================================================
 Step    129 Time=  5.85000E+00 Dt=  5.00000E-02 [y] snes_conv_reason:   11
  newton =   1 [     135] linear =    91 [     13602] cuts =  0 [   0]
  --> max chng: dpmx=   6.7128E-01 dtmpmx=   8.4535E-02

== TH FLOW =====================================================================
 Step    130 Time=  5.90000E+00 Dt=  5.00000E-02 [y] snes_conv_reason:   11
  newton =   1 [     136] linear =    98 [     13700] cuts =  0 [   0]
  --> max chng: dpmx=   6.6765E-01 dtmpmx=   8.3958E-02

== TH FLOW =====================================================================
 Step    131 Time=  5.95000E+00 Dt=  5.00000E-02 [y] snes_conv_reason:   11
  newton =   1 [     137] linear =    99 [     13799] cuts =  0 [   0]
  --> max chng: dpmx=   6.6391E-01 dtmpmx=   8.3418E-02

== TH FLOW =====================================================================
 Step    132 Time=  6.00000E+00 Dt=  5.00000E-02 [y] snes_conv_reason:   11
  newton =   1 [     138] linear =   105 [     13904] cuts =  0 [   0]
  --> max chng: dpmx=   6.6124E-01 dtmpmx=   8.2939E-02

== TH FLOW =====================================================================
 Step    133 Time=  6.05000E+00 Dt=  5.00000E-02 [y] snes_conv_reason:   11
  newton =   1 [     139] linear =   101 [     14005] cuts =  0 [   0]
  --> max chng: dpmx=   6.5628E-01 dtmpmx=   8.2341E-02

== TH FLOW =====================================================================
 Step    134 Time=  6.10000E+00 Dt=  5.00000E-02 [y] snes_conv_reason:   11
  newton =   1 [     140] linear =   100 [     14105] cuts =  0 [   0]
  --> max chng: dpmx=   6.5324E-01 dtmpmx=   8.1895E-02

== TH FLOW =====================================================================
 Step    135 Time=  6.15000E+00 Dt=  5.00000E-02 [y] snes_conv_reason:   11
  newton =   1 [     141] linear =    97 [     14202] cuts =  0 [   0]
  --> max chng: dpmx=   6.5003E-01 dtmpmx=   8.1392E-02

== TH FLOW =====================================================================
 Step    136 Time=  6.20000E+00 Dt=  5.00000E-02 [y] snes_conv_reason:   11
  newton =   1 [     142] linear =   101 [     14303] cuts =  0 [   0]
  --> max chng: dpmx=   6.4611E-01 dtmpmx=   8.0830E-02

== TH FLOW =====================================================================
 Step    137 Time=  6.25000E+00 Dt=  5.00000E-02 [y] snes_conv_reason:   11
  newton =   1 [     143] linear =   101 [     14404] cuts =  0 [   0]
  --> max chng: dpmx=   6.4263E-01 dtmpmx=   8.0417E-02

== TH FLOW =====================================================================
 Step    138 Time=  6.30000E+00 Dt=  5.00000E-02 [y] snes_conv_reason:   11
  newton =   1 [     144] linear =   102 [     14506] cuts =  0 [   0]
  --> max chng: dpmx=   6.3928E-01 dtmpmx=   7.9892E-02

== TH FLOW =====================================================================
 Step    139 Time=  6.35000E+00 Dt=  5.00000E-02 [y] snes_conv_reason:   11
  newton =   1 [     145] linear =   103 [     14609] cuts =  0 [   0]
  --> max chng: dpmx=   6.3563E-01 dtmpmx=   7.9420E-02

== TH FLOW =====================================================================
 Step    140 Time=  6.40000E+00 Dt=  5.00000E-02 [y] snes_conv_reason:   11
  newton =   1 [     146] linear =   104 [     14713] cuts =  0 [   0]
  --> max chng: dpmx=   6.3201E-01 dtmpmx=   7.8981E-02

== TH FLOW =====================================================================
 Step    141 Time=  6.45000E+00 Dt=  5.00000E-02 [y] snes_conv_reason:   11
  newton =   1 [     147] linear =   101 [     14814] cuts =  0 [   0]
  --> max chng: dpmx=   6.2846E-01 dtmpmx=   7.8436E-02

== TH FLOW =====================================================================
 Step    142 Time=  6.50000E+00 Dt=  5.00000E-02 [y] snes_conv_reason:   11
  newton =   1 [     148] linear =   103 [     14917] cuts =  0 [   0]
  --> max chng: dpmx=   6.2501E-01 dtmpmx=   7.8047E-02

== TH FLOW =====================================================================
 Step    143 Time=  6.55000E+00 Dt=  5.00000E-02 [y] snes_conv_reason:   11
  newton =   1 [     149] linear =   103 [     15020] cuts =  0 [   0]
  --> max chng: dpmx=   6.2121E-01 dtmpmx=   7.7586E-02

== TH FLOW =====================================================================
 Step    144 Time=  6.60000E+00 Dt=  5.00000E-02 [y] snes_conv_reason:   11
  newton =   1 [     150] linear =   100 [     15120] cuts =  0 [   0]
  --> max chng: dpmx=   6.1805E-01 dtmpmx=   7.7092E-02

== TH FLOW =====================================================================
 Step    145 Time=  6.65000E+00 Dt=  5.00000E-02 [y] snes_conv_reason:   11
  newton =   1 [     151] linear =   101 [     15221] cuts =  0 [   0]
  --> max chng: dpmx=   6.1423E-01 dtmpmx=   7.6712E-02

== TH FLOW =====================================================================
 Step    146 Time=  6.70000E+00 Dt=  5.00000E-02 [y] snes_conv_reason:   11
  newton =   1 [     152] linear =   104 [     15325] cuts =  0 [   0]
  --> max chng: dpmx=   6.1059E-01 dtmpmx=   7.6230E-02

== TH FLOW =====================================================================
 Step    147 Time=  6.75000E+00 Dt=  5.00000E-02 [y] snes_conv_reason:   11
  newton =   1 [     153] linear =   102 [     15427] cuts =  0 [   0]
  --> max chng: dpmx=   6.0733E-01 dtmpmx=   7.5815E-02

== TH FLOW =====================================================================
 Step    148 Time=  6.80000E+00 Dt=  5.00000E-02 [y] snes_conv_reason:   11
  newton =   1 [     154] linear =   101 [     15528] cuts =  0 [   0]
  --> max chng: dpmx=   6.0377E-01 dtmpmx=   7.5412E-02

== TH FLOW =====================================================================
 Step    149 Time=  6.85000E+00 Dt=  5.00000E-02 [y] snes_conv_reason:   11
  newton =   1 [     155] linear =   102 [     15630] cuts =  0 [   0]
  --> max chng: dpmx=   6.0009E-01 dtmpmx=   7.4912E-02

== TH FLOW =====================================================================
 Step    150 Time=  6.90000E+00 Dt=  5.00000E-02 [y] snes_conv_reason:   11
  newton =   1 [     156] linear =   101 [     15731] cuts =  0 [   0]
  --> max chng: dpmx=   5.9681E-01 dtmpmx=   7.4570E-02

== TH FLOW =====================================================================
 Step    151 Time=  6.95000E+00 Dt=  5.00000E-02 [y] snes_conv_reason:   11
  newton =   1 [     157] linear =   106 [     15837] cuts =  0 [   0]
  --> max chng: dpmx=   5.9342E-01 dtmpmx=   7.4146E-02

== TH FLOW =====================================================================
 Step    152 Time=  7.00000E+00 Dt=  5.00000E-02 [y] snes_conv_reason:   11
  newton =   1 [     158] linear =   105 [     15942] cuts =  0 [   0]
  --> max chng: dpmx=   5.9016E-01 dtmpmx=   7.3709E-02

== TH FLOW =====================================================================
 Step    153 Time=  7.05000E+00 Dt=  5.00000E-02 [y] snes_conv_reason:   11
  newton =   1 [     159] linear =   105 [     16047] cuts =  0 [   0]
  --> max chng: dpmx=   5.8615E-01 dtmpmx=   7.3357E-02

== TH FLOW =====================================================================
 Step    154 Time=  7.10000E+00 Dt=  5.00000E-02 [y] snes_conv_reason:   11
  newton =   1 [     160] linear =   105 [     16152] cuts =  0 [   0]
  --> max chng: dpmx=   5.8265E-01 dtmpmx=   7.2913E-02

== TH FLOW =====================================================================
 Step    155 Time=  7.15000E+00 Dt=  5.00000E-02 [y] snes_conv_reason:   11
  newton =   1 [     161] linear =   105 [     16257] cuts =  0 [   0]
  --> max chng: dpmx=   5.7940E-01 dtmpmx=   7.2546E-02

== TH FLOW =====================================================================
 Step    156 Time=  7.20000E+00 Dt=  5.00000E-02 [y] snes_conv_reason:   11
  newton =   1 [     162] linear =   105 [     16362] cuts =  0 [   0]
  --> max chng: dpmx=   5.7577E-01 dtmpmx=   7.2173E-02

== TH FLOW =====================================================================
 Step    157 Time=  7.25000E+00 Dt=  5.00000E-02 [y] snes_conv_reason:   11
  newton =   1 [     163] linear =   105 [     16467] cuts =  0 [   0]
  --> max chng: dpmx=   5.7228E-01 dtmpmx=   7.1716E-02

== TH FLOW =====================================================================
 Step    158 Time=  7.30000E+00 Dt=  5.00000E-02 [y] snes_conv_reason:   11
  newton =   1 [     164] linear =   105 [     16572] cuts =  0 [   0]
  --> max chng: dpmx=   5.6876E-01 dtmpmx=   7.1411E-02

== TH FLOW =====================================================================
 Step    159 Time=  7.35000E+00 Dt=  5.00000E-02 [y] snes_conv_reason:   11
  newton =   1 [     165] linear =   105 [     16677] cuts =  0 [   0]
  --> max chng: dpmx=   5.6513E-01 dtmpmx=   7.1018E-02

== TH FLOW =====================================================================
 Step    160 Time=  7.40000E+00 Dt=  5.00000E-02 [y] snes_conv_reason:   11
  newton =   1 [     166] linear =   101 [     16778] cuts =  0 [   0]
  --> max chng: dpmx=   5.6212E-01 dtmpmx=   7.0629E-02

== TH FLOW =====================================================================
 Step    161 Time=  7.45000E+00 Dt=  5.00000E-02 [y] snes_conv_reason:   11
  newton =   1 [     167] linear =   100 [     16878] cuts =  0 [   0]
  --> max chng: dpmx=   5.5825E-01 dtmpmx=   7.0302E-02

== TH FLOW =====================================================================
 Step    162 Time=  7.50000E+00 Dt=  5.00000E-02 [y] snes_conv_reason:   11
  newton =   1 [     168] linear =   101 [     16979] cuts =  0 [   0]
  --> max chng: dpmx=   5.5494E-01 dtmpmx=   6.9892E-02

== TH FLOW =====================================================================
 Step    163 Time=  7.55000E+00 Dt=  5.00000E-02 [y] snes_conv_reason:   11
  newton =   1 [     169] linear =   101 [     17080] cuts =  0 [   0]
  --> max chng: dpmx=   5.5122E-01 dtmpmx=   6.9565E-02

== TH FLOW =====================================================================
 Step    164 Time=  7.60000E+00 Dt=  5.00000E-02 [y] snes_conv_reason:   11
  newton =   1 [     170] linear =    99 [     17179] cuts =  0 [   0]
  --> max chng: dpmx=   5.4797E-01 dtmpmx=   6.9219E-02

== TH FLOW =====================================================================
 Step    165 Time=  7.65000E+00 Dt=  5.00000E-02 [y] snes_conv_reason:   11
  newton =   1 [     171] linear =    99 [     17278] cuts =  0 [   0]
  --> max chng: dpmx=   5.4458E-01 dtmpmx=   6.8810E-02

== TH FLOW =====================================================================
 Step    166 Time=  7.70000E+00 Dt=  5.00000E-02 [y] snes_conv_reason:   11
  newton =   1 [     172] linear =   100 [     17378] cuts =  0 [   0]
  --> max chng: dpmx=   5.4093E-01 dtmpmx=   6.8525E-02

== TH FLOW =====================================================================
 Step    167 Time=  7.75000E+00 Dt=  5.00000E-02 [y] snes_conv_reason:   11
  newton =   1 [     173] linear =    98 [     17476] cuts =  0 [   0]
  --> max chng: dpmx=   5.3753E-01 dtmpmx=   6.8160E-02

== TH FLOW =====================================================================
 Step    168 Time=  7.80000E+00 Dt=  5.00000E-02 [y] snes_conv_reason:   11
  newton =   1 [     174] linear =   100 [     17576] cuts =  0 [   0]
  --> max chng: dpmx=   5.3388E-01 dtmpmx=   6.7812E-02

== TH FLOW =====================================================================
 Step    169 Time=  7.85000E+00 Dt=  5.00000E-02 [y] snes_conv_reason:   11
  newton =   1 [     175] linear =   100 [     17676] cuts =  0 [   0]
  --> max chng: dpmx=   5.3070E-01 dtmpmx=   6.7507E-02

== TH FLOW =====================================================================
 Step    170 Time=  7.90000E+00 Dt=  5.00000E-02 [y] snes_conv_reason:   11
  newton =   1 [     176] linear =   101 [     17777] cuts =  0 [   0]
  --> max chng: dpmx=   5.2692E-01 dtmpmx=   6.7126E-02

== TH FLOW =====================================================================
 Step    171 Time=  7.95000E+00 Dt=  5.00000E-02 [y] snes_conv_reason:   11
  newton =   1 [     177] linear =    99 [     17876] cuts =  0 [   0]
  --> max chng: dpmx=   5.2397E-01 dtmpmx=   6.6835E-02

== TH FLOW =====================================================================
 Step    172 Time=  8.00000E+00 Dt=  5.00000E-02 [y] snes_conv_reason:   11
  newton =   1 [     178] linear =   103 [     17979] cuts =  0 [   0]
  --> max chng: dpmx=   5.1999E-01 dtmpmx=   6.6511E-02

== TH FLOW =====================================================================
 Step    173 Time=  8.05000E+00 Dt=  5.00000E-02 [y] snes_conv_reason:   11
  newton =   1 [     179] linear =   100 [     18079] cuts =  0 [   0]
  --> max chng: dpmx=   5.1678E-01 dtmpmx=   6.6145E-02

== TH FLOW =====================================================================
 Step    174 Time=  8.10000E+00 Dt=  5.00000E-02 [y] snes_conv_reason:   11
  newton =   1 [     180] linear =   101 [     18180] cuts =  0 [   0]
  --> max chng: dpmx=   5.1345E-01 dtmpmx=   6.5877E-02

== TH FLOW =====================================================================
 Step    175 Time=  8.15000E+00 Dt=  5.00000E-02 [y] snes_conv_reason:   11
  newton =   1 [     181] linear =   105 [     18285] cuts =  0 [   0]
  --> max chng: dpmx=   5.0999E-01 dtmpmx=   6.5537E-02

== TH FLOW =====================================================================
 Step    176 Time=  8.20000E+00 Dt=  5.00000E-02 [y] snes_conv_reason:   11
  newton =   1 [     182] linear =   101 [     18386] cuts =  0 [   0]
  --> max chng: dpmx=   5.0626E-01 dtmpmx=   6.5225E-02

== TH FLOW =====================================================================
 Step    177 Time=  8.25000E+00 Dt=  5.00000E-02 [y] snes_conv_reason:   11
  newton =   1 [     183] linear =   101 [     18487] cuts =  0 [   0]
  --> max chng: dpmx=   5.0308E-01 dtmpmx=   6.4939E-02

== TH FLOW =====================================================================
 Step    178 Time=  8.30000E+00 Dt=  5.00000E-02 [y] snes_conv_reason:   11
  newton =   1 [     184] linear =   101 [     18588] cuts =  0 [   0]
  --> max chng: dpmx=   5.0283E-01 dtmpmx=   6.4584E-02

== TH FLOW =====================================================================
 Step    179 Time=  8.35000E+00 Dt=  5.00000E-02 [y] snes_conv_reason:   11
  newton =   1 [     185] linear =    71 [     18659] cuts =  0 [   0]
  --> max chng: dpmx=   5.0567E-01 dtmpmx=   6.4322E-02

== TH FLOW =====================================================================
 Step    180 Time=  8.40000E+00 Dt=  5.00000E-02 [y] snes_conv_reason:   11
  newton =   1 [     186] linear =    81 [     18740] cuts =  0 [   0]
  --> max chng: dpmx=   5.0808E-01 dtmpmx=   6.4020E-02

== TH FLOW =====================================================================
 Step    181 Time=  8.45000E+00 Dt=  5.00000E-02 [y] snes_conv_reason:   11
  newton =   1 [     187] linear =    89 [     18829] cuts =  0 [   0]
  --> max chng: dpmx=   5.1085E-01 dtmpmx=   6.3689E-02

== TH FLOW =====================================================================
 Step    182 Time=  8.50000E+00 Dt=  5.00000E-02 [y] snes_conv_reason:   11
  newton =   1 [     188] linear =    96 [     18925] cuts =  0 [   0]
  --> max chng: dpmx=   5.1367E-01 dtmpmx=   6.3438E-02

== TH FLOW =====================================================================
 Step    183 Time=  8.55000E+00 Dt=  5.00000E-02 [y] snes_conv_reason:   11
  newton =   1 [     189] linear =    97 [     19022] cuts =  0 [   0]
  --> max chng: dpmx=   5.1622E-01 dtmpmx=   6.3120E-02

== TH FLOW =====================================================================
 Step    184 Time=  8.60000E+00 Dt=  5.00000E-02 [y] snes_conv_reason:   11
  newton =   1 [     190] linear =   101 [     19123] cuts =  0 [   0]
  --> max chng: dpmx=   5.1890E-01 dtmpmx=   6.2838E-02

== TH FLOW =====================================================================
 Step    185 Time=  8.65000E+00 Dt=  5.00000E-02 [y] snes_conv_reason:   11
  newton =   1 [     191] linear =    99 [     19222] cuts =  0 [   0]
  --> max chng: dpmx=   5.2129E-01 dtmpmx=   6.2570E-02

== TH FLOW =====================================================================
 Step    186 Time=  8.70000E+00 Dt=  5.00000E-02 [y] snes_conv_reason:   11
  newton =   1 [     192] linear =   102 [     19324] cuts =  0 [   0]
  --> max chng: dpmx=   5.2436E-01 dtmpmx=   6.2237E-02

== TH FLOW =====================================================================
 Step    187 Time=  8.75000E+00 Dt=  5.00000E-02 [y] snes_conv_reason:   11
  newton =   1 [     193] linear =   101 [     19425] cuts =  0 [   0]
  --> max chng: dpmx=   5.2694E-01 dtmpmx=   6.2002E-02

== TH FLOW =====================================================================
 Step    188 Time=  8.80000E+00 Dt=  5.00000E-02 [y] snes_conv_reason:   11
  newton =   1 [     194] linear =    99 [     19524] cuts =  0 [   0]
  --> max chng: dpmx=   5.2934E-01 dtmpmx=   6.1718E-02

== TH FLOW =====================================================================
 Step    189 Time=  8.85000E+00 Dt=  5.00000E-02 [y] snes_conv_reason:   11
  newton =   1 [     195] linear =   100 [     19624] cuts =  0 [   0]
  --> max chng: dpmx=   5.3234E-01 dtmpmx=   6.1418E-02

== TH FLOW =====================================================================
 Step    190 Time=  8.90000E+00 Dt=  5.00000E-02 [y] snes_conv_reason:   11
  newton =   1 [     196] linear =    99 [     19723] cuts =  0 [   0]
  --> max chng: dpmx=   5.3474E-01 dtmpmx=   6.1182E-02

== TH FLOW =====================================================================
 Step    191 Time=  8.95000E+00 Dt=  5.00000E-02 [y] snes_conv_reason:   11
  newton =   1 [     197] linear =    99 [     19822] cuts =  0 [   0]
  --> max chng: dpmx=   5.3766E-01 dtmpmx=   6.0883E-02

== TH FLOW =====================================================================
 Step    192 Time=  9.00000E+00 Dt=  5.00000E-02 [y] snes_conv_reason:   11
  newton =   1 [     198] linear =    99 [     19921] cuts =  0 [   0]
  --> max chng: dpmx=   5.4033E-01 dtmpmx=   6.0628E-02

== TH FLOW =====================================================================
 Step    193 Time=  9.05000E+00 Dt=  5.00000E-02 [y] snes_conv_reason:   11
  newton =   1 [     199] linear =    98 [     20019] cuts =  0 [   0]
  --> max chng: dpmx=   5.4279E-01 dtmpmx=   6.0376E-02

== TH FLOW =====================================================================
 Step    194 Time=  9.10000E+00 Dt=  5.00000E-02 [y] snes_conv_reason:   11
  newton =   1 [     200] linear =   100 [     20119] cuts =  0 [   0]
  --> max chng: dpmx=   5.4572E-01 dtmpmx=   6.0064E-02

== TH FLOW =====================================================================
 Step    195 Time=  9.15000E+00 Dt=  5.00000E-02 [y] snes_conv_reason:   11
  newton =   1 [     201] linear =    99 [     20218] cuts =  0 [   0]
  --> max chng: dpmx=   5.4839E-01 dtmpmx=   5.9852E-02

== TH FLOW =====================================================================
 Step    196 Time=  9.20000E+00 Dt=  5.00000E-02 [y] snes_conv_reason:   11
  newton =   1 [     202] linear =    98 [     20316] cuts =  0 [   0]
  --> max chng: dpmx=   5.5094E-01 dtmpmx=   5.9585E-02

== TH FLOW =====================================================================
 Step    197 Time=  9.25000E+00 Dt=  5.00000E-02 [y] snes_conv_reason:   11
  newton =   1 [     203] linear =    97 [     20413] cuts =  0 [   0]
  --> max chng: dpmx=   5.5362E-01 dtmpmx=   5.9312E-02

== TH FLOW =====================================================================
 Step    198 Time=  9.30000E+00 Dt=  5.00000E-02 [y] snes_conv_reason:   11
  newton =   1 [     204] linear =    97 [     20510] cuts =  0 [   0]
  --> max chng: dpmx=   5.5644E-01 dtmpmx=   5.9089E-02

== TH FLOW =====================================================================
 Step    199 Time=  9.35000E+00 Dt=  5.00000E-02 [y] snes_conv_reason:   11
  newton =   1 [     205] linear =    96 [     20606] cuts =  0 [   0]
  --> max chng: dpmx=   5.5914E-01 dtmpmx=   5.8808E-02

== TH FLOW =====================================================================
 Step    200 Time=  9.40000E+00 Dt=  5.00000E-02 [y] snes_conv_reason:   11
  newton =   1 [     206] linear =    98 [     20704] cuts =  0 [   0]
  --> max chng: dpmx=   5.6178E-01 dtmpmx=   5.8576E-02

== TH FLOW =====================================================================
 Step    201 Time=  9.45000E+00 Dt=  5.00000E-02 [y] snes_conv_reason:   11
  newton =   1 [     207] linear =    99 [     20803] cuts =  0 [   0]
  --> max chng: dpmx=   5.6449E-01 dtmpmx=   5.8338E-02

== TH FLOW =====================================================================
 Step    202 Time=  9.50000E+00 Dt=  5.00000E-02 [y] snes_conv_reason:   11
  newton =   1 [     208] linear =    96 [     20899] cuts =  0 [   0]
  --> max chng: dpmx=   5.6746E-01 dtmpmx=   5.8049E-02

== TH FLOW =====================================================================
 Step    203 Time=  9.55000E+00 Dt=  5.00000E-02 [y] snes_conv_reason:   11
  newton =   1 [     209] linear =    98 [     20997] cuts =  0 [   0]
  --> max chng: dpmx=   5.6978E-01 dtmpmx=   5.7853E-02

== TH FLOW =====================================================================
 Step    204 Time=  9.60000E+00 Dt=  5.00000E-02 [y] snes_conv_reason:   11
  newton =   1 [     210] linear =    98 [     21095] cuts =  0 [   0]
  --> max chng: dpmx=   5.7271E-01 dtmpmx=   5.7601E-02

== TH FLOW =====================================================================
 Step    205 Time=  9.65000E+00 Dt=  5.00000E-02 [y] snes_conv_reason:   11
  newton =   1 [     211] linear =    98 [     21193] cuts =  0 [   0]
  --> max chng: dpmx=   5.7541E-01 dtmpmx=   5.7352E-02

== TH FLOW =====================================================================
 Step    206 Time=  9.70000E+00 Dt=  5.00000E-02 [y] snes_conv_reason:   11
  newton =   1 [     212] linear =    92 [     21285] cuts =  0 [   0]
  --> max chng: dpmx=   5.7799E-01 dtmpmx=   5.7141E-02

== TH FLOW =====================================================================
 Step    207 Time=  9.75000E+00 Dt=  5.00000E-02 [y] snes_conv_reason:   11
  newton =   1 [     213] linear =    92 [     21377] cuts =  0 [   0]
  --> max chng: dpmx=   5.8077E-01 dtmpmx=   5.6876E-02

== TH FLOW =====================================================================
 Step    208 Time=  9.80000E+00 Dt=  5.00000E-02 [y] snes_conv_reason:   11
  newton =   1 [     214] linear =    98 [     21475] cuts =  0 [   0]
  --> max chng: dpmx=   5.8378E-01 dtmpmx=   5.6665E-02

== TH FLOW =====================================================================
 Step    209 Time=  9.85000E+00 Dt=  5.00000E-02 [y] snes_conv_reason:   11
  newton =   1 [     215] linear =    97 [     21572] cuts =  0 [   0]
  --> max chng: dpmx=   5.8619E-01 dtmpmx=   5.6440E-02

== TH FLOW =====================================================================
 Step    210 Time=  9.90000E+00 Dt=  5.00000E-02 [y] snes_conv_reason:   11
  newton =   1 [     216] linear =    97 [     21669] cuts =  0 [   0]
  --> max chng: dpmx=   5.8903E-01 dtmpmx=   5.6175E-02

== TH FLOW =====================================================================
 Step    211 Time=  9.95000E+00 Dt=  5.00000E-02 [y] snes_conv_reason:   11
  newton =   1 [     217] linear =    97 [     21766] cuts =  0 [   0]
  --> max chng: dpmx=   5.9164E-01 dtmpmx=   5.5989E-02

== TH FLOW =====================================================================
 Step    212 Time=  1.00000E+01 Dt=  5.00000E-02 [y] snes_conv_reason:   11
  newton =   1 [     218] linear =    97 [     21863] cuts =  0 [   0]
  --> max chng: dpmx=   5.9445E-01 dtmpmx=   5.5751E-02

== TH FLOW =====================================================================
 Step    213 Time=  1.00500E+01 Dt=  5.00000E-02 [y] snes_conv_reason:   11
  newton =   1 [     219] linear =    96 [     21959] cuts =  0 [   0]
  --> max chng: dpmx=   5.9725E-01 dtmpmx=   5.5523E-02

== TH FLOW =====================================================================
 Step    214 Time=  1.01000E+01 Dt=  5.00000E-02 [y] snes_conv_reason:   11
  newton =   1 [     220] linear =    91 [     22050] cuts =  0 [   0]
  --> max chng: dpmx=   6.0021E-01 dtmpmx=   5.5323E-02

== TH FLOW =====================================================================
 Step    215 Time=  1.01500E+01 Dt=  5.00000E-02 [y] snes_conv_reason:   11
  newton =   1 [     221] linear =    91 [     22141] cuts =  0 [   0]
  --> max chng: dpmx=   6.0260E-01 dtmpmx=   5.5073E-02

== TH FLOW =====================================================================
 Step    216 Time=  1.02000E+01 Dt=  5.00000E-02 [y] snes_conv_reason:   11
  newton =   1 [     222] linear =    98 [     22239] cuts =  0 [   0]
  --> max chng: dpmx=   6.0529E-01 dtmpmx=   5.4880E-02

== TH FLOW =====================================================================
 Step    217 Time=  1.02500E+01 Dt=  5.00000E-02 [y] snes_conv_reason:   11
  newton =   1 [     223] linear =   100 [     22339] cuts =  0 [   0]
  --> max chng: dpmx=   6.0841E-01 dtmpmx=   5.4667E-02

== TH FLOW =====================================================================
 Step    218 Time=  1.03000E+01 Dt=  5.00000E-02 [y] snes_conv_reason:   11
  newton =   1 [     224] linear =    99 [     22438] cuts =  0 [   0]
  --> max chng: dpmx=   6.1079E-01 dtmpmx=   5.4423E-02

== TH FLOW =====================================================================
 Step    219 Time=  1.03500E+01 Dt=  5.00000E-02 [y] snes_conv_reason:   11
  newton =   1 [     225] linear =    97 [     22535] cuts =  0 [   0]
  --> max chng: dpmx=   6.1386E-01 dtmpmx=   5.4246E-02

== TH FLOW =====================================================================
 Step    220 Time=  1.04000E+01 Dt=  5.00000E-02 [y] snes_conv_reason:   11
  newton =   1 [     226] linear =   100 [     22635] cuts =  0 [   0]
  --> max chng: dpmx=   6.1630E-01 dtmpmx=   5.4021E-02

== TH FLOW =====================================================================
 Step    221 Time=  1.04500E+01 Dt=  5.00000E-02 [y] snes_conv_reason:   11
  newton =   1 [     227] linear =   102 [     22737] cuts =  0 [   0]
  --> max chng: dpmx=   6.1920E-01 dtmpmx=   5.3811E-02

== TH FLOW =====================================================================
 Step    222 Time=  1.05000E+01 Dt=  5.00000E-02 [y] snes_conv_reason:   11
  newton =   1 [     228] linear =    99 [     22836] cuts =  0 [   0]
  --> max chng: dpmx=   6.2212E-01 dtmpmx=   5.3621E-02

== TH FLOW =====================================================================
 Step    223 Time=  1.05500E+01 Dt=  5.00000E-02 [y] snes_conv_reason:   11
  newton =   1 [     229] linear =   100 [     22936] cuts =  0 [   0]
  --> max chng: dpmx=   6.2440E-01 dtmpmx=   5.3385E-02

== TH FLOW =====================================================================
 Step    224 Time=  1.06000E+01 Dt=  5.00000E-02 [y] snes_conv_reason:   11
  newton =   1 [     230] linear =   100 [     23036] cuts =  0 [   0]
  --> max chng: dpmx=   6.2770E-01 dtmpmx=   5.3208E-02

== TH FLOW =====================================================================
 Step    225 Time=  1.06500E+01 Dt=  5.00000E-02 [y] snes_conv_reason:   11
  newton =   1 [     231] linear =    99 [     23135] cuts =  0 [   0]
  --> max chng: dpmx=   6.3021E-01 dtmpmx=   5.3006E-02

== TH FLOW =====================================================================
 Step    226 Time=  1.07000E+01 Dt=  5.00000E-02 [y] snes_conv_reason:   11
  newton =   1 [     232] linear =    95 [     23230] cuts =  0 [   0]
  --> max chng: dpmx=   6.3275E-01 dtmpmx=   5.2782E-02

== TH FLOW =====================================================================
 Step    227 Time=  1.07500E+01 Dt=  5.00000E-02 [y] snes_conv_reason:   11
  newton =   1 [     233] linear =    93 [     23323] cuts =  0 [   0]
  --> max chng: dpmx=   6.3579E-01 dtmpmx=   5.2613E-02

== TH FLOW =====================================================================
 Step    228 Time=  1.08000E+01 Dt=  5.00000E-02 [y] snes_conv_reason:   11
  newton =   1 [     234] linear =    98 [     23421] cuts =  0 [   0]
  --> max chng: dpmx=   6.3861E-01 dtmpmx=   5.2400E-02

== TH FLOW =====================================================================
 Step    229 Time=  1.08500E+01 Dt=  5.00000E-02 [y] snes_conv_reason:   11
  newton =   1 [     235] linear =    96 [     23517] cuts =  0 [   0]
  --> max chng: dpmx=   6.4120E-01 dtmpmx=   5.2207E-02

== TH FLOW =====================================================================
 Step    230 Time=  1.09000E+01 Dt=  5.00000E-02 [y] snes_conv_reason:   11
  newton =   1 [     236] linear =   100 [     23617] cuts =  0 [   0]
  --> max chng: dpmx=   6.4433E-01 dtmpmx=   5.2026E-02

== TH FLOW =====================================================================
 Step    231 Time=  1.09500E+01 Dt=  5.00000E-02 [y] snes_conv_reason:   11
  newton =   1 [     237] linear =    96 [     23713] cuts =  0 [   0]
  --> max chng: dpmx=   6.4674E-01 dtmpmx=   5.1802E-02

== TH FLOW =====================================================================
 Step    232 Time=  1.10000E+01 Dt=  5.00000E-02 [y] snes_conv_reason:   11
  newton =   1 [     238] linear =    90 [     23803] cuts =  0 [   0]
  --> max chng: dpmx=   6.4947E-01 dtmpmx=   5.1639E-02

== TH FLOW =====================================================================
 Step    233 Time=  1.10500E+01 Dt=  5.00000E-02 [y] snes_conv_reason:   11
  newton =   1 [     239] linear =    95 [     23898] cuts =  0 [   0]
  --> max chng: dpmx=   6.5258E-01 dtmpmx=   5.1447E-02

== TH FLOW =====================================================================
 Step    234 Time=  1.11000E+01 Dt=  5.00000E-02 [y] snes_conv_reason:   11
  newton =   1 [     240] linear =    96 [     23994] cuts =  0 [   0]
  --> max chng: dpmx=   6.5512E-01 dtmpmx=   5.1240E-02

== TH FLOW =====================================================================
 Step    235 Time=  1.11500E+01 Dt=  5.00000E-02 [y] snes_conv_reason:   11
  newton =   1 [     241] linear =    98 [     24092] cuts =  0 [   0]
  --> max chng: dpmx=   6.5786E-01 dtmpmx=   5.1079E-02

== TH FLOW =====================================================================
 Step    236 Time=  1.12000E+01 Dt=  5.00000E-02 [y] snes_conv_reason:   11
  newton =   1 [     242] linear =   100 [     24192] cuts =  0 [   0]
  --> max chng: dpmx=   6.6089E-01 dtmpmx=   5.0876E-02

== TH FLOW =====================================================================
 Step    237 Time=  1.12500E+01 Dt=  5.00000E-02 [y] snes_conv_reason:   11
  newton =   1 [     243] linear =    96 [     24288] cuts =  0 [   0]
  --> max chng: dpmx=   6.6340E-01 dtmpmx=   5.0698E-02

== TH FLOW =====================================================================
 Step    238 Time=  1.13000E+01 Dt=  5.00000E-02 [y] snes_conv_reason:   11
  newton =   1 [     244] linear =    96 [     24384] cuts =  0 [   0]
  --> max chng: dpmx=   6.6630E-01 dtmpmx=   5.0526E-02

== TH FLOW =====================================================================
 Step    239 Time=  1.13500E+01 Dt=  5.00000E-02 [y] snes_conv_reason:   11
  newton =   1 [     245] linear =    90 [     24474] cuts =  0 [   0]
  --> max chng: dpmx=   6.6918E-01 dtmpmx=   5.0314E-02

== TH FLOW =====================================================================
 Step    240 Time=  1.14000E+01 Dt=  5.00000E-02 [y] snes_conv_reason:   11
  newton =   1 [     246] linear =    94 [     24568] cuts =  0 [   0]
  --> max chng: dpmx=   6.7206E-01 dtmpmx=   5.0163E-02

== TH FLOW =====================================================================
 Step    241 Time=  1.14500E+01 Dt=  5.00000E-02 [y] snes_conv_reason:   11
  newton =   1 [     247] linear =    98 [     24666] cuts =  0 [   0]
  --> max chng: dpmx=   6.7455E-01 dtmpmx=   4.9980E-02

== TH FLOW =====================================================================
 Step    242 Time=  1.15000E+01 Dt=  5.00000E-02 [y] snes_conv_reason:   11
  newton =   1 [     248] linear =    95 [     24761] cuts =  0 [   0]
  --> max chng: dpmx=   6.7737E-01 dtmpmx=   4.9788E-02

== TH FLOW =====================================================================
 Step    243 Time=  1.15500E+01 Dt=  5.00000E-02 [y] snes_conv_reason:   11
  newton =   1 [     249] linear =    93 [     24854] cuts =  0 [   0]
  --> max chng: dpmx=   6.8051E-01 dtmpmx=   4.9635E-02

== TH FLOW =====================================================================
 Step    244 Time=  1.16000E+01 Dt=  5.00000E-02 [y] snes_conv_reason:   11
  newton =   1 [     250] linear =    95 [     24949] cuts =  0 [   0]
  --> max chng: dpmx=   6.8295E-01 dtmpmx=   4.9442E-02

== TH FLOW =====================================================================
 Step    245 Time=  1.16500E+01 Dt=  5.00000E-02 [y] snes_conv_reason:   11
  newton =   1 [     251] linear =    95 [     25044] cuts =  0 [   0]
  --> max chng: dpmx=   6.8590E-01 dtmpmx=   4.9277E-02

== TH FLOW =====================================================================
 Step    246 Time=  1.17000E+01 Dt=  5.00000E-02 [y] snes_conv_reason:   11
  newton =   1 [     252] linear =    97 [     25141] cuts =  0 [   0]
  --> max chng: dpmx=   6.8879E-01 dtmpmx=   4.9113E-02

== TH FLOW =====================================================================
 Step    247 Time=  1.17500E+01 Dt=  5.00000E-02 [y] snes_conv_reason:   11
  newton =   1 [     253] linear =    98 [     25239] cuts =  0 [   0]
  --> max chng: dpmx=   6.9159E-01 dtmpmx=   4.8911E-02

== TH FLOW =====================================================================
 Step    248 Time=  1.18000E+01 Dt=  5.00000E-02 [y] snes_conv_reason:   11
  newton =   1 [     254] linear =    98 [     25337] cuts =  0 [   0]
  --> max chng: dpmx=   6.9427E-01 dtmpmx=   4.8772E-02

== TH FLOW =====================================================================
 Step    249 Time=  1.18500E+01 Dt=  5.00000E-02 [y] snes_conv_reason:   11
  newton =   1 [     255] linear =    99 [     25436] cuts =  0 [   0]
  --> max chng: dpmx=   6.9717E-01 dtmpmx=   4.8598E-02

== TH FLOW =====================================================================
 Step    250 Time=  1.19000E+01 Dt=  5.00000E-02 [y] snes_conv_reason:   11
  newton =   1 [     256] linear =    97 [     25533] cuts =  0 [   0]
  --> max chng: dpmx=   6.9968E-01 dtmpmx=   4.8420E-02

== TH FLOW =====================================================================
 Step    251 Time=  1.19500E+01 Dt=  5.00000E-02 [y] snes_conv_reason:   11
  newton =   1 [     257] linear =    99 [     25632] cuts =  0 [   0]
  --> max chng: dpmx=   7.0268E-01 dtmpmx=   4.8273E-02

== TH FLOW =====================================================================
 Step    252 Time=  1.20000E+01 Dt=  5.00000E-02 [y] snes_conv_reason:   11
  newton =   1 [     258] linear =    98 [     25730] cuts =  0 [   0]
  --> max chng: dpmx=   7.0561E-01 dtmpmx=   4.8090E-02

== TH FLOW =====================================================================
 Step    253 Time=  1.20500E+01 Dt=  5.00000E-02 [y] snes_conv_reason:   11
  newton =   1 [     259] linear =    98 [     25828] cuts =  0 [   0]
  --> max chng: dpmx=   7.0868E-01 dtmpmx=   4.7936E-02

== TH FLOW =====================================================================
 Step    254 Time=  1.21000E+01 Dt=  5.00000E-02 [y] snes_conv_reason:   11
  newton =   1 [     260] linear =    97 [     25925] cuts =  0 [   0]
  --> max chng: dpmx=   7.1099E-01 dtmpmx=   4.7780E-02

== TH FLOW =====================================================================
 Step    255 Time=  1.21500E+01 Dt=  5.00000E-02 [y] snes_conv_reason:   11
  newton =   1 [     261] linear =    96 [     26021] cuts =  0 [   0]
  --> max chng: dpmx=   7.1403E-01 dtmpmx=   4.7589E-02

== TH FLOW =====================================================================
 Step    256 Time=  1.22000E+01 Dt=  5.00000E-02 [y] snes_conv_reason:   11
  newton =   1 [     262] linear =    92 [     26113] cuts =  0 [   0]
  --> max chng: dpmx=   7.1674E-01 dtmpmx=   4.7459E-02

== TH FLOW =====================================================================
 Step    257 Time=  1.22500E+01 Dt=  5.00000E-02 [y] snes_conv_reason:   11
  newton =   1 [     263] linear =    95 [     26208] cuts =  0 [   0]
  --> max chng: dpmx=   7.1971E-01 dtmpmx=   4.7293E-02

== TH FLOW =====================================================================
 Step    258 Time=  1.23000E+01 Dt=  5.00000E-02 [y] snes_conv_reason:   11
  newton =   1 [     264] linear =    93 [     26301] cuts =  0 [   0]
  --> max chng: dpmx=   7.2271E-01 dtmpmx=   4.7126E-02

== TH FLOW =====================================================================
 Step    259 Time=  1.23500E+01 Dt=  5.00000E-02 [y] snes_conv_reason:   11
  newton =   1 [     265] linear =    97 [     26398] cuts =  0 [   0]
  --> max chng: dpmx=   7.2502E-01 dtmpmx=   4.6986E-02

== TH FLOW =====================================================================
 Step    260 Time=  1.24000E+01 Dt=  5.00000E-02 [y] snes_conv_reason:   11
[...]
 Step    493 Time=  2.40500E+01 Dt=  5.00000E-02 [y] snes_conv_reason:   11
  newton =   1 [     499] linear =    94 [     49470] cuts =  0 [   0]
  --> max chng: dpmx=   6.8472E-03 dtmpmx=   1.1855E-04

== TH FLOW =====================================================================
 Step    494 Time=  2.41000E+01 Dt=  5.00000E-02 [y] snes_conv_reason:   11
  newton =   1 [     500] linear =    92 [     49562] cuts =  0 [   0]
  --> max chng: dpmx=   6.8711E-03 dtmpmx=   1.1841E-04

== TH FLOW =====================================================================
 Step    495 Time=  2.41500E+01 Dt=  5.00000E-02 [y] snes_conv_reason:   11
  newton =   1 [     501] linear =    92 [     49654] cuts =  0 [   0]
  --> max chng: dpmx=   6.8943E-03 dtmpmx=   1.1828E-04

== TH FLOW =====================================================================
 Step    496 Time=  2.42000E+01 Dt=  5.00000E-02 [y] snes_conv_reason:   11
  newton =   1 [     502] linear =    91 [     49745] cuts =  0 [   0]
  --> max chng: dpmx=   6.9159E-03 dtmpmx=   1.1815E-04

== TH FLOW =====================================================================
 Step    497 Time=  2.42500E+01 Dt=  5.00000E-02 [y] snes_conv_reason:   11
  newton =   1 [     503] linear =    91 [     49836] cuts =  0 [   0]
  --> max chng: dpmx=   6.9366E-03 dtmpmx=   1.1802E-04

== TH FLOW =====================================================================
 Step    498 Time=  2.43000E+01 Dt=  5.00000E-02 [y] snes_conv_reason:   11
  newton =   1 [     504] linear =    87 [     49923] cuts =  0 [   0]
  --> max chng: dpmx=   6.9568E-03 dtmpmx=   1.1789E-04

== TH FLOW =====================================================================
 Step    499 Time=  2.43500E+01 Dt=  5.00000E-02 [y] snes_conv_reason:   11
  newton =   1 [     505] linear =    92 [     50015] cuts =  0 [   0]
  --> max chng: dpmx=   6.9756E-03 dtmpmx=   1.1776E-04

== TH FLOW =====================================================================
 Step    500 Time=  2.44000E+01 Dt=  5.00000E-02 [y] snes_conv_reason:   11
  newton =   1 [     506] linear =    93 [     50108] cuts =  0 [   0]
  --> max chng: dpmx=   6.9936E-03 dtmpmx=   1.1763E-04

== TH FLOW =====================================================================
 Step    501 Time=  2.44500E+01 Dt=  5.00000E-02 [y] snes_conv_reason:   11
  newton =   1 [     507] linear =    87 [     50195] cuts =  0 [   0]
  --> max chng: dpmx=   7.0112E-03 dtmpmx=   1.1751E-04

== TH FLOW =====================================================================
 Step    502 Time=  2.45000E+01 Dt=  5.00000E-02 [y] snes_conv_reason:   11
  newton =   1 [     508] linear =    89 [     50284] cuts =  0 [   0]
  --> max chng: dpmx=   7.0276E-03 dtmpmx=   1.1738E-04

== TH FLOW =====================================================================
 Step    503 Time=  2.45500E+01 Dt=  5.00000E-02 [y] snes_conv_reason:   11
  newton =   1 [     509] linear =    94 [     50378] cuts =  0 [   0]
  --> max chng: dpmx=   7.0437E-03 dtmpmx=   1.1726E-04

== TH FLOW =====================================================================
 Step    504 Time=  2.46000E+01 Dt=  5.00000E-02 [y] snes_conv_reason:   11
  newton =   1 [     510] linear =    89 [     50467] cuts =  0 [   0]
  --> max chng: dpmx=   7.0588E-03 dtmpmx=   1.1714E-04

== TH FLOW =====================================================================
 Step    505 Time=  2.46500E+01 Dt=  5.00000E-02 [y] snes_conv_reason:   11
  newton =   1 [     511] linear =    87 [     50554] cuts =  0 [   0]
  --> max chng: dpmx=   7.0737E-03 dtmpmx=   1.1702E-04

== TH FLOW =====================================================================
 Step    506 Time=  2.47000E+01 Dt=  5.00000E-02 [y] snes_conv_reason:   11
  newton =   1 [     512] linear =    84 [     50638] cuts =  0 [   0]
  --> max chng: dpmx=   7.0878E-03 dtmpmx=   1.1692E-04

== TH FLOW =====================================================================
 Step    507 Time=  2.47500E+01 Dt=  5.00000E-02 [y] snes_conv_reason:   11
  newton =   1 [     513] linear =    88 [     50726] cuts =  0 [   0]
  --> max chng: dpmx=   7.1015E-03 dtmpmx=   1.1688E-04

== TH FLOW =====================================================================
 Step    508 Time=  2.48000E+01 Dt=  5.00000E-02 [y] snes_conv_reason:   11
  newton =   1 [     514] linear =    88 [     50814] cuts =  0 [   0]
  --> max chng: dpmx=   7.1143E-03 dtmpmx=   1.1685E-04

== TH FLOW =====================================================================
 Step    509 Time=  2.48500E+01 Dt=  5.00000E-02 [y] snes_conv_reason:   11
  newton =   1 [     515] linear =    89 [     50903] cuts =  0 [   0]
  --> max chng: dpmx=   7.1273E-03 dtmpmx=   1.1681E-04

== TH FLOW =====================================================================
 Step    510 Time=  2.49000E+01 Dt=  5.00000E-02 [y] snes_conv_reason:   11
  newton =   1 [     516] linear =    89 [     50992] cuts =  0 [   0]
  --> max chng: dpmx=   7.1391E-03 dtmpmx=   1.1677E-04

== TH FLOW =====================================================================
 Step    511 Time=  2.49500E+01 Dt=  5.00000E-02 [y] snes_conv_reason:   11
  newton =   1 [     517] linear =    89 [     51081] cuts =  0 [   0]
  --> max chng: dpmx=   7.1510E-03 dtmpmx=   1.1674E-04

== TH FLOW =====================================================================
 Step    512 Time=  2.50000E+01 Dt=  5.00000E-02 [y] snes_conv_reason:   11
  newton =   1 [     518] linear =    88 [     51169] cuts =  0 [   0]
  --> max chng: dpmx=   7.1618E-03 dtmpmx=   1.1670E-04

== TH FLOW =====================================================================
 Step    513 Time=  2.50500E+01 Dt=  5.00000E-02 [y] snes_conv_reason:   11
  newton =   1 [     519] linear =    89 [     51258] cuts =  0 [   0]
  --> max chng: dpmx=   7.1731E-03 dtmpmx=   1.1666E-04

== TH FLOW =====================================================================
 Step    514 Time=  2.51000E+01 Dt=  5.00000E-02 [y] snes_conv_reason:   11
  newton =   1 [     520] linear =    89 [     51347] cuts =  0 [   0]
  --> max chng: dpmx=   7.1831E-03 dtmpmx=   1.1662E-04

== TH FLOW =====================================================================
 Step    515 Time=  2.51500E+01 Dt=  5.00000E-02 [y] snes_conv_reason:   11
  newton =   1 [     521] linear =    89 [     51436] cuts =  0 [   0]
  --> max chng: dpmx=   7.1932E-03 dtmpmx=   1.1659E-04

== TH FLOW =====================================================================
 Step    516 Time=  2.52000E+01 Dt=  5.00000E-02 [y] snes_conv_reason:   11
  newton =   1 [     522] linear =    88 [     51524] cuts =  0 [   0]
  --> max chng: dpmx=   7.2024E-03 dtmpmx=   1.1655E-04

== TH FLOW =====================================================================
 Step    517 Time=  2.52500E+01 Dt=  5.00000E-02 [y] snes_conv_reason:   11
  newton =   1 [     523] linear =    89 [     51613] cuts =  0 [   0]
  --> max chng: dpmx=   7.2120E-03 dtmpmx=   1.1651E-04

== TH FLOW =====================================================================
 Step    518 Time=  2.53000E+01 Dt=  5.00000E-02 [y] snes_conv_reason:   11
  newton =   1 [     524] linear =    89 [     51702] cuts =  0 [   0]
  --> max chng: dpmx=   7.2205E-03 dtmpmx=   1.1647E-04

== TH FLOW =====================================================================
 Step    519 Time=  2.53500E+01 Dt=  5.00000E-02 [y] snes_conv_reason:   11
  newton =   1 [     525] linear =    81 [     51783] cuts =  0 [   0]
  --> max chng: dpmx=   7.2286E-03 dtmpmx=   1.1643E-04

== TH FLOW =====================================================================
 Step    520 Time=  2.54000E+01 Dt=  5.00000E-02 [y] snes_conv_reason:   11
  newton =   1 [     526] linear =    89 [     51872] cuts =  0 [   0]
  --> max chng: dpmx=   7.2370E-03 dtmpmx=   1.1639E-04

== TH FLOW =====================================================================
 Step    521 Time=  2.54500E+01 Dt=  5.00000E-02 [y] snes_conv_reason:   11
  newton =   1 [     527] linear =    91 [     51963] cuts =  0 [   0]
  --> max chng: dpmx=   7.2445E-03 dtmpmx=   1.1635E-04

== TH FLOW =====================================================================
 Step    522 Time=  2.55000E+01 Dt=  5.00000E-02 [y] snes_conv_reason:   11
  newton =   1 [     528] linear =    90 [     52053] cuts =  0 [   0]
  --> max chng: dpmx=   7.2515E-03 dtmpmx=   1.1631E-04

== TH FLOW =====================================================================
 Step    523 Time=  2.55500E+01 Dt=  5.00000E-02 [y] snes_conv_reason:   11
  newton =   1 [     529] linear =    83 [     52136] cuts =  0 [   0]
  --> max chng: dpmx=   7.2585E-03 dtmpmx=   1.1627E-04

== TH FLOW =====================================================================
 Step    524 Time=  2.56000E+01 Dt=  5.00000E-02 [y] snes_conv_reason:   11
  newton =   1 [     530] linear =    89 [     52225] cuts =  0 [   0]
  --> max chng: dpmx=   7.2649E-03 dtmpmx=   1.1623E-04

== TH FLOW =====================================================================
 Step    525 Time=  2.56500E+01 Dt=  5.00000E-02 [y] snes_conv_reason:   11
  newton =   1 [     531] linear =    89 [     52314] cuts =  0 [   0]
  --> max chng: dpmx=   7.2711E-03 dtmpmx=   1.1619E-04

== TH FLOW =====================================================================
 Step    526 Time=  2.57000E+01 Dt=  5.00000E-02 [y] snes_conv_reason:   11
  newton =   1 [     532] linear =    88 [     52402] cuts =  0 [   0]
  --> max chng: dpmx=   7.2768E-03 dtmpmx=   1.1615E-04

== TH FLOW =====================================================================
 Step    527 Time=  2.57500E+01 Dt=  5.00000E-02 [y] snes_conv_reason:   11
  newton =   1 [     533] linear =    88 [     52490] cuts =  0 [   0]
  --> max chng: dpmx=   7.2823E-03 dtmpmx=   1.1610E-04

== TH FLOW =====================================================================
 Step    528 Time=  2.58000E+01 Dt=  5.00000E-02 [y] snes_conv_reason:   11
  newton =   1 [     534] linear =    90 [     52580] cuts =  0 [   0]
  --> max chng: dpmx=   7.2874E-03 dtmpmx=   1.1606E-04

== TH FLOW =====================================================================
 Step    529 Time=  2.58500E+01 Dt=  5.00000E-02 [y] snes_conv_reason:   11
  newton =   1 [     535] linear =    79 [     52659] cuts =  0 [   0]
  --> max chng: dpmx=   7.2922E-03 dtmpmx=   1.1602E-04

== TH FLOW =====================================================================
 Step    530 Time=  2.59000E+01 Dt=  5.00000E-02 [y] snes_conv_reason:   11
  newton =   1 [     536] linear =    94 [     52753] cuts =  0 [   0]
  --> max chng: dpmx=   7.2961E-03 dtmpmx=   1.1598E-04

== TH FLOW =====================================================================
 Step    531 Time=  2.59500E+01 Dt=  5.00000E-02 [y] snes_conv_reason:   11
  newton =   1 [     537] linear =    93 [     52846] cuts =  0 [   0]
  --> max chng: dpmx=   7.3003E-03 dtmpmx=   1.1594E-04

== TH FLOW =====================================================================
 Step    532 Time=  2.60000E+01 Dt=  5.00000E-02 [y] snes_conv_reason:   11
  newton =   1 [     538] linear =    94 [     52940] cuts =  0 [   0]
  --> max chng: dpmx=   7.3040E-03 dtmpmx=   1.1590E-04

== TH FLOW =====================================================================
 Step    533 Time=  2.60500E+01 Dt=  5.00000E-02 [y] snes_conv_reason:   11
  newton =   1 [     539] linear =    93 [     53033] cuts =  0 [   0]
  --> max chng: dpmx=   7.3071E-03 dtmpmx=   1.1585E-04

== TH FLOW =====================================================================
 Step    534 Time=  2.61000E+01 Dt=  5.00000E-02 [y] snes_conv_reason:   11
  newton =   1 [     540] linear =    93 [     53126] cuts =  0 [   0]
  --> max chng: dpmx=   7.3100E-03 dtmpmx=   1.1581E-04

== TH FLOW =====================================================================
 Step    535 Time=  2.61500E+01 Dt=  5.00000E-02 [y] snes_conv_reason:   11
  newton =   1 [     541] linear =    92 [     53218] cuts =  0 [   0]
  --> max chng: dpmx=   7.3123E-03 dtmpmx=   1.1576E-04

== TH FLOW =====================================================================
 Step    536 Time=  2.62000E+01 Dt=  5.00000E-02 [y] snes_conv_reason:   11
  newton =   1 [     542] linear =    91 [     53309] cuts =  0 [   0]
  --> max chng: dpmx=   7.3145E-03 dtmpmx=   1.1572E-04

== TH FLOW =====================================================================
 Step    537 Time=  2.62500E+01 Dt=  5.00000E-02 [y] snes_conv_reason:   11
  newton =   1 [     543] linear =    88 [     53397] cuts =  0 [   0]
  --> max chng: dpmx=   7.3162E-03 dtmpmx=   1.1567E-04

== TH FLOW =====================================================================
 Step    538 Time=  2.63000E+01 Dt=  5.00000E-02 [y] snes_conv_reason:   11
  newton =   1 [     544] linear =    87 [     53484] cuts =  0 [   0]
  --> max chng: dpmx=   7.3183E-03 dtmpmx=   1.1563E-04

== TH FLOW =====================================================================
 Step    539 Time=  2.63500E+01 Dt=  5.00000E-02 [y] snes_conv_reason:   11
  newton =   1 [     545] linear =    90 [     53574] cuts =  0 [   0]
  --> max chng: dpmx=   7.3183E-03 dtmpmx=   1.1559E-04

== TH FLOW =====================================================================
 Step    540 Time=  2.64000E+01 Dt=  5.00000E-02 [y] snes_conv_reason:   11
  newton =   1 [     546] linear =    77 [     53651] cuts =  0 [   0]
  --> max chng: dpmx=   7.3196E-03 dtmpmx=   1.1554E-04

== TH FLOW =====================================================================
 Step    541 Time=  2.64500E+01 Dt=  5.00000E-02 [y] snes_conv_reason:   11
  newton =   1 [     547] linear =    89 [     53740] cuts =  0 [   0]
  --> max chng: dpmx=   7.3201E-03 dtmpmx=   1.1550E-04

== TH FLOW =====================================================================
 Step    542 Time=  2.65000E+01 Dt=  5.00000E-02 [y] snes_conv_reason:   11
  newton =   1 [     548] linear =    84 [     53824] cuts =  0 [   0]
  --> max chng: dpmx=   7.3199E-03 dtmpmx=   1.1545E-04

== TH FLOW =====================================================================
 Step    543 Time=  2.65500E+01 Dt=  5.00000E-02 [y] snes_conv_reason:   11
  newton =   1 [     549] linear =    87 [     53911] cuts =  0 [   0]
  --> max chng: dpmx=   7.3191E-03 dtmpmx=   1.1541E-04

== TH FLOW =====================================================================
 Step    544 Time=  2.66000E+01 Dt=  5.00000E-02 [y] snes_conv_reason:   11
  newton =   1 [     550] linear =    83 [     53994] cuts =  0 [   0]
  --> max chng: dpmx=   7.3184E-03 dtmpmx=   1.1536E-04

== TH FLOW =====================================================================
 Step    545 Time=  2.66500E+01 Dt=  5.00000E-02 [y] snes_conv_reason:   11
  newton =   1 [     551] linear =    82 [     54076] cuts =  0 [   0]
  --> max chng: dpmx=   7.3172E-03 dtmpmx=   1.1532E-04

== TH FLOW =====================================================================
 Step    546 Time=  2.67000E+01 Dt=  5.00000E-02 [y] snes_conv_reason:   11
  newton =   1 [     552] linear =    79 [     54155] cuts =  0 [   0]
  --> max chng: dpmx=   7.3160E-03 dtmpmx=   1.1527E-04

== TH FLOW =====================================================================
 Step    547 Time=  2.67500E+01 Dt=  5.00000E-02 [y] snes_conv_reason:   11
  newton =   1 [     553] linear =    90 [     54245] cuts =  0 [   0]
  --> max chng: dpmx=   7.3143E-03 dtmpmx=   1.1522E-04

== TH FLOW =====================================================================
 Step    548 Time=  2.68000E+01 Dt=  5.00000E-02 [y] snes_conv_reason:   11
  newton =   1 [     554] linear =    95 [     54340] cuts =  0 [   0]
  --> max chng: dpmx=   7.3117E-03 dtmpmx=   1.1518E-04

== TH FLOW =====================================================================
 Step    549 Time=  2.68500E+01 Dt=  5.00000E-02 [y] snes_conv_reason:   11
  newton =   1 [     555] linear =    81 [     54421] cuts =  0 [   0]
  --> max chng: dpmx=   7.3091E-03 dtmpmx=   1.1513E-04

== TH FLOW =====================================================================
 Step    550 Time=  2.69000E+01 Dt=  5.00000E-02 [y] snes_conv_reason:   11
  newton =   1 [     556] linear =    83 [     54504] cuts =  0 [   0]
  --> max chng: dpmx=   7.3059E-03 dtmpmx=   1.1508E-04

== TH FLOW =====================================================================
 Step    551 Time=  2.69500E+01 Dt=  5.00000E-02 [y] snes_conv_reason:   11
  newton =   1 [     557] linear =    93 [     54597] cuts =  0 [   0]
  --> max chng: dpmx=   7.3028E-03 dtmpmx=   1.1504E-04

== TH FLOW =====================================================================
 Step    552 Time=  2.70000E+01 Dt=  5.00000E-02 [y] snes_conv_reason:   11
  newton =   1 [     558] linear =    95 [     54692] cuts =  0 [   0]
  --> max chng: dpmx=   7.2989E-03 dtmpmx=   1.1499E-04

== TH FLOW =====================================================================
 Step    553 Time=  2.70500E+01 Dt=  5.00000E-02 [y] snes_conv_reason:   11
  newton =   1 [     559] linear =    86 [     54778] cuts =  0 [   0]
  --> max chng: dpmx=   7.2955E-03 dtmpmx=   1.1494E-04

== TH FLOW =====================================================================
 Step    554 Time=  2.71000E+01 Dt=  5.00000E-02 [y] snes_conv_reason:   11
  newton =   1 [     560] linear =    86 [     54864] cuts =  0 [   0]
  --> max chng: dpmx=   7.2905E-03 dtmpmx=   1.1490E-04

== TH FLOW =====================================================================
 Step    555 Time=  2.71500E+01 Dt=  5.00000E-02 [y] snes_conv_reason:   11
  newton =   1 [     561] linear =    85 [     54949] cuts =  0 [   0]
  --> max chng: dpmx=   7.2847E-03 dtmpmx=   1.1485E-04

== TH FLOW =====================================================================
 Step    556 Time=  2.72000E+01 Dt=  5.00000E-02 [y] snes_conv_reason:   11
  newton =   1 [     562] linear =    85 [     55034] cuts =  0 [   0]
  --> max chng: dpmx=   7.2806E-03 dtmpmx=   1.1480E-04

== TH FLOW =====================================================================
 Step    557 Time=  2.72500E+01 Dt=  5.00000E-02 [y] snes_conv_reason:   11
  newton =   1 [     563] linear =    81 [     55115] cuts =  0 [   0]
  --> max chng: dpmx=   7.2751E-03 dtmpmx=   1.1475E-04

== TH FLOW =====================================================================
 Step    558 Time=  2.73000E+01 Dt=  5.00000E-02 [y] snes_conv_reason:   11
  newton =   1 [     564] linear =    85 [     55200] cuts =  0 [   0]
  --> max chng: dpmx=   7.2685E-03 dtmpmx=   1.1471E-04

== TH FLOW =====================================================================
 Step    559 Time=  2.73500E+01 Dt=  5.00000E-02 [y] snes_conv_reason:   11
  newton =   1 [     565] linear =    85 [     55285] cuts =  0 [   0]
  --> max chng: dpmx=   7.2623E-03 dtmpmx=   1.1466E-04

== TH FLOW =====================================================================
 Step    560 Time=  2.74000E+01 Dt=  5.00000E-02 [y] snes_conv_reason:   11
  newton =   1 [     566] linear =    85 [     55370] cuts =  0 [   0]
  --> max chng: dpmx=   7.2558E-03 dtmpmx=   1.1461E-04

== TH FLOW =====================================================================
 Step    561 Time=  2.74500E+01 Dt=  5.00000E-02 [y] snes_conv_reason:   11
  newton =   1 [     567] linear =    86 [     55456] cuts =  0 [   0]
  --> max chng: dpmx=   7.2487E-03 dtmpmx=   1.1456E-04

== TH FLOW =====================================================================
 Step    562 Time=  2.75000E+01 Dt=  5.00000E-02 [y] snes_conv_reason:   11
  newton =   1 [     568] linear =    85 [     55541] cuts =  0 [   0]
  --> max chng: dpmx=   7.2413E-03 dtmpmx=   1.1451E-04

 Wall Clock Time:  2.8671E+01 [sec]   4.7785E-01 [min]   7.9642E-03 [hr]
