
===================
  PFLOTRAN v3.0.1
===================

 Extent of Gridded Domain
  X: 2.5000000000000000 - 97.500000000000000
  Y: 2.5000000000000000 - 1277.5000000000000
  Z: 2.5000000000000000 - 2.5000000000000000


=+=+=+=+=+=+=+=+=+=+=+=+=+=+=+=+=+=+=+=+=+=+=+=+=+=+=+=+=+=+=+=+=+=+=+=+=+=+=+=+

  Initial Condition

--------------------------------------------------------------------------------
          Flow Condition:   initial
                  Region:   all
--------------------------------------------------------------------------------

  Flow Condition: initial
    Synchronize time with update: no
    Time units: yr
    Length units: m
      Datum:
        Dataset: Unnamed Ascii Dataset
          Type: dataset_ascii_type
          Transient: no
          Array Rank:  3

    Sub Condition: pressure
      Type: hydrostatic
      Gradient:
        Dataset: Unnamed Ascii Dataset
          Type: dataset_ascii_type
          Transient: no
          Array Rank:  3
      Data:
        Dataset: Unnamed Ascii Dataset
          Type: dataset_ascii_type
          Transient: no
          Array Rank:  1

    Sub Condition: temperature
      Type: dirichlet
      Gradient:
      Data:
        Dataset: Unnamed Ascii Dataset
          Type: dataset_ascii_type
          Transient: no
          Array Rank:  1

--------------------------------------------------------------------------------

=+=+=+=+=+=+=+=+=+=+=+=+=+=+=+=+=+=+=+=+=+=+=+=+=+=+=+=+=+=+=+=+=+=+=+=+=+=+=+=+

  Boundary Condition

--------------------------------------------------------------------------------
          Flow Condition:   initial
                  Region:   north
--------------------------------------------------------------------------------

  Flow Condition: initial
    Synchronize time with update: no
    Time units: yr
    Length units: m
      Datum:
        Dataset: Unnamed Ascii Dataset
          Type: dataset_ascii_type
          Transient: no
          Array Rank:  3

    Sub Condition: pressure
      Type: hydrostatic
      Gradient:
        Dataset: Unnamed Ascii Dataset
          Type: dataset_ascii_type
          Transient: no
          Array Rank:  3
      Data:
        Dataset: Unnamed Ascii Dataset
          Type: dataset_ascii_type
          Transient: no
          Array Rank:  1

    Sub Condition: temperature
      Type: dirichlet
      Gradient:
      Data:
        Dataset: Unnamed Ascii Dataset
          Type: dataset_ascii_type
          Transient: no
          Array Rank:  1

--------------------------------------------------------------------------------

=+=+=+=+=+=+=+=+=+=+=+=+=+=+=+=+=+=+=+=+=+=+=+=+=+=+=+=+=+=+=+=+=+=+=+=+=+=+=+=+

  Boundary Condition

--------------------------------------------------------------------------------
          Flow Condition:   initial
                  Region:   south
--------------------------------------------------------------------------------

  Flow Condition: initial
    Synchronize time with update: no
    Time units: yr
    Length units: m
      Datum:
        Dataset: Unnamed Ascii Dataset
          Type: dataset_ascii_type
          Transient: no
          Array Rank:  3

    Sub Condition: pressure
      Type: hydrostatic
      Gradient:
        Dataset: Unnamed Ascii Dataset
          Type: dataset_ascii_type
          Transient: no
          Array Rank:  3
      Data:
        Dataset: Unnamed Ascii Dataset
          Type: dataset_ascii_type
          Transient: no
          Array Rank:  1

    Sub Condition: temperature
      Type: dirichlet
      Gradient:
      Data:
        Dataset: Unnamed Ascii Dataset
          Type: dataset_ascii_type
          Transient: no
          Array Rank:  1

--------------------------------------------------------------------------------

=+=+=+=+=+=+=+=+=+=+=+=+=+=+=+=+=+=+=+=+=+=+=+=+=+=+=+=+=+=+=+=+=+=+=+=+=+=+=+=+

  Source Sink

--------------------------------------------------------------------------------
          Flow Condition:   injection
                  Region:   heatpump_inject1
--------------------------------------------------------------------------------

  Flow Condition: injection
    Synchronize time with update: no
    Time units: yr
    Length units: m
      Datum:

    Sub Condition: rate
      Type: scaled volumetric rate
      Gradient:
      Data:
        Dataset: Unnamed Ascii Dataset
          Type: dataset_ascii_type
          Is transient?: yes
          Number of times:      3
          Is cyclic?: no
          Buffer:
            Rank:  2
            Dims:    1   3
            Buffer Slice Size:   0
          Array Rank:  1

    Sub Condition: temperature
      Type: dirichlet
      Gradient:
      Data:
        Dataset: Unnamed Ascii Dataset
          Type: dataset_ascii_type
          Transient: no
          Array Rank:  1

--------------------------------------------------------------------------------

 Requested processors =    16

FLOW Time Stepper
                 acceleration: on
       acceleration threshold: 5
       number of ramp entries: 5
                ramp entry #1: 2.0000
                ramp entry #2: 2.0000
                ramp entry #3: 2.0000
                ramp entry #4: 2.0000
                ramp entry #5: 2.0000
                ramp entry #6: 1.8000
                ramp entry #7: 1.6000
                ramp entry #8: 1.4000
                ramp entry #9: 1.2000
               ramp entry #10: 1.0000
               ramp entry #11: 1.0000
               ramp entry #12: 1.0000
               ramp entry #13: 1.0000
      maximum number of steps: 999999
constant time steps threshold: 5
       maximum number of cuts: 16
             reduction factor: 5.000000E-01
        maximum growth factor: 2.000000E+00

FLOW Newton Solver
                         atol: 1.000000E-50
                         rtol: 1.000000E-03
                         stol: 1.000000E-08
                         dtol: 1.000000E+04
                      maxnorm: 1.000000E+20
                    inftolres: -9.990000E+02
                    inftolupd: 1.000000E+00
                 inftolrelupd: -9.990000E+02
                 inftolsclres: -9.990000E+02
                     max iter: 50
                     min iter: 1
                         maxf: 10000
                  matrix type: baij
         precond. matrix type: baij
               inexact newton: off
            print convergence: on
   print detailed convergence: off
          check infinity norm: on

FLOW Linear Solver
                       solver: bcgs
               preconditioner: bjacobi
                         atol: 1.000000E-50
                         rtol: 1.000000E-05
                         dtol: 1.000000E+04
            maximum iteration: 10000

== TH FLOW =====================================================================
  0 2r: 1.24E-10 2x: 0.00E+00 2u: 0.00E+00 ir: 1.73E-12 iu: 0.00E+00 rsn:   0
  1 2r: 5.68E-12 2x: 6.45E+07 2u: 1.87E-01 ir: 2.29E-13 iu: 3.14E-03 rsn: itol_upd
 Step      1 Time=  1.00000E-05 Dt=  1.00000E-05 [y] snes_conv_reason:   11
  newton =   1 [       1] linear =    61 [        61] cuts =  0 [   0]
  --> max chng: dpmx=   3.1421E-03 dtmpmx=   1.0495E-10

== TH FLOW =====================================================================
  0 2r: 1.23E-10 2x: 0.00E+00 2u: 0.00E+00 ir: 1.73E-12 iu: 0.00E+00 rsn:   0
  1 2r: 3.68E-12 2x: 6.45E+07 2u: 2.93E-01 ir: 1.58E-13 iu: 5.45E-03 rsn: itol_upd
 Step      2 Time=  3.00000E-05 Dt=  2.00000E-05 [y] snes_conv_reason:   11
  newton =   1 [       2] linear =    61 [       122] cuts =  0 [   0]
  --> max chng: dpmx=   5.4461E-03 dtmpmx=   2.0886E-10

== TH FLOW =====================================================================
  0 2r: 1.22E-10 2x: 0.00E+00 2u: 0.00E+00 ir: 1.73E-12 iu: 0.00E+00 rsn:   0
  1 2r: 1.67E-12 2x: 6.45E+07 2u: 3.87E-01 ir: 7.38E-14 iu: 7.52E-03 rsn: itol_upd
 Step      3 Time=  7.00000E-05 Dt=  4.00000E-05 [y] snes_conv_reason:   11
  newton =   1 [       3] linear =    61 [       183] cuts =  0 [   0]
  --> max chng: dpmx=   7.5151E-03 dtmpmx=   4.1349E-10

== TH FLOW =====================================================================
  0 2r: 1.22E-10 2x: 0.00E+00 2u: 0.00E+00 ir: 1.71E-12 iu: 0.00E+00 rsn:   0
  1 2r: 9.24E-13 2x: 6.45E+07 2u: 3.82E-01 ir: 2.86E-14 iu: 7.51E-03 rsn: itol_upd
 Step      4 Time=  1.50000E-04 Dt=  8.00000E-05 [y] snes_conv_reason:   11
  newton =   1 [       4] linear =    56 [       239] cuts =  0 [   0]
  --> max chng: dpmx=   7.5149E-03 dtmpmx=   8.1757E-10

== TH FLOW =====================================================================
  0 2r: 1.21E-10 2x: 0.00E+00 2u: 0.00E+00 ir: 1.70E-12 iu: 0.00E+00 rsn:   0
  1 2r: 4.87E-13 2x: 6.45E+07 2u: 2.50E-01 ir: 1.99E-14 iu: 4.93E-03 rsn: itol_upd
 Step      5 Time=  3.10000E-04 Dt=  1.60000E-04 [y] snes_conv_reason:   11
  newton =   1 [       5] linear =    49 [       288] cuts =  0 [   0]
  --> max chng: dpmx=   4.9342E-03 dtmpmx=   1.6225E-09

== TH FLOW =====================================================================
  0 2r: 1.20E-10 2x: 0.00E+00 2u: 0.00E+00 ir: 1.68E-12 iu: 0.00E+00 rsn:   0
  1 2r: 2.44E-13 2x: 6.45E+07 2u: 9.78E-02 ir: 9.06E-15 iu: 1.93E-03 rsn: itol_upd
 Step      6 Time=  6.30000E-04 Dt=  3.20000E-04 [y] snes_conv_reason:   11
  newton =   1 [       6] linear =    50 [       338] cuts =  0 [   0]
  --> max chng: dpmx=   1.9322E-03 dtmpmx=   3.2351E-09

== TH FLOW =====================================================================
  0 2r: 1.20E-10 2x: 0.00E+00 2u: 0.00E+00 ir: 1.68E-12 iu: 0.00E+00 rsn:   0
  1 2r: 1.13E-13 2x: 6.45E+07 2u: 2.12E-02 ir: 4.52E-15 iu: 4.19E-04 rsn: itol_upd
 Step      7 Time=  1.27000E-03 Dt=  6.40000E-04 [y] snes_conv_reason:   11
  newton =   1 [       7] linear =    72 [       410] cuts =  0 [   0]
  --> max chng: dpmx=   4.1916E-04 dtmpmx=   6.4659E-09

== TH FLOW =====================================================================
  0 2r: 1.20E-10 2x: 0.00E+00 2u: 0.00E+00 ir: 1.68E-12 iu: 0.00E+00 rsn:   0
  1 2r: 5.88E-14 2x: 6.45E+07 2u: 2.43E-03 ir: 2.53E-15 iu: 4.81E-05 rsn: itol_upd
 Step      8 Time=  2.55000E-03 Dt=  1.28000E-03 [y] snes_conv_reason:   11
  newton =   1 [       8] linear =   113 [       523] cuts =  0 [   0]
  --> max chng: dpmx=   4.8058E-05 dtmpmx=   1.2931E-08

== TH FLOW =====================================================================
  0 2r: 1.20E-10 2x: 0.00E+00 2u: 0.00E+00 ir: 1.68E-12 iu: 0.00E+00 rsn:   0
  1 2r: 2.94E-14 2x: 6.45E+07 2u: 1.42E-04 ir: 1.14E-15 iu: 2.81E-06 rsn: itol_upd
 Step      9 Time=  5.11000E-03 Dt=  2.56000E-03 [y] snes_conv_reason:   11
  newton =   1 [       9] linear =   119 [       642] cuts =  0 [   0]
  --> max chng: dpmx=   2.8118E-06 dtmpmx=   2.5862E-08

== TH FLOW =====================================================================
  0 2r: 1.20E-10 2x: 0.00E+00 2u: 0.00E+00 ir: 1.68E-12 iu: 0.00E+00 rsn:   0
  1 2r: 1.41E-14 2x: 6.45E+07 2u: 4.67E-06 ir: 5.87E-16 iu: 1.03E-07 rsn: itol_upd
 Step     10 Time=  1.02300E-02 Dt=  5.12000E-03 [y] snes_conv_reason:   11
  newton =   1 [      10] linear =   120 [       762] cuts =  0 [   0]
  --> max chng: dpmx=   1.0303E-07 dtmpmx=   5.1723E-08

== TH FLOW =====================================================================
  0 2r: 1.20E-10 2x: 0.00E+00 2u: 0.00E+00 ir: 1.68E-12 iu: 0.00E+00 rsn:   0
  1 2r: 6.68E-15 2x: 6.45E+07 2u: 1.14E-05 ir: 2.86E-16 iu: 2.11E-07 rsn: itol_upd
 Step     11 Time=  2.04700E-02 Dt=  1.02400E-02 [y] snes_conv_reason:   11
  newton =   1 [      11] linear =   121 [       883] cuts =  0 [   0]
  --> max chng: dpmx=   2.1106E-07 dtmpmx=   1.0345E-07

== TH FLOW =====================================================================
  0 2r: 1.20E-10 2x: 0.00E+00 2u: 0.00E+00 ir: 1.68E-12 iu: 0.00E+00 rsn:   0
  1 2r: 3.70E-15 2x: 6.45E+07 2u: 2.32E-05 ir: 2.34E-16 iu: 4.29E-07 rsn: itol_upd
 Step     12 Time=  4.09500E-02 Dt=  2.04800E-02 [y] snes_conv_reason:   11
  newton =   1 [      12] linear =   109 [       992] cuts =  0 [   0]
  --> max chng: dpmx=   4.2922E-07 dtmpmx=   2.0689E-07

== TH FLOW =====================================================================
  0 2r: 1.20E-10 2x: 0.00E+00 2u: 0.00E+00 ir: 1.68E-12 iu: 0.00E+00 rsn:   0
  1 2r: 2.08E-15 2x: 6.45E+07 2u: 4.69E-05 ir: 9.32E-17 iu: 8.84E-07 rsn: itol_upd
 Step     13 Time=  8.19100E-02 Dt=  4.09600E-02 [y] snes_conv_reason:   11
  newton =   1 [      13] linear =   106 [      1098] cuts =  0 [   0]
  --> max chng: dpmx=   8.8406E-07 dtmpmx=   4.1379E-07

== TH FLOW =====================================================================
  0 2r: 1.20E-10 2x: 0.00E+00 2u: 0.00E+00 ir: 1.68E-12 iu: 0.00E+00 rsn:   0
  1 2r: 4.38E-15 2x: 6.45E+07 2u: 2.10E-05 ir: 2.07E-16 iu: 3.96E-07 rsn: itol_upd
 Step     14 Time=  1.00000E-01 Dt=  1.80900E-02 [y] snes_conv_reason:   11
  newton =   1 [      14] linear =   119 [      1217] cuts =  0 [   0]
  --> max chng: dpmx=   3.9639E-07 dtmpmx=   1.8275E-07

== TH FLOW =====================================================================
  0 2r: 1.20E-10 2x: 0.00E+00 2u: 0.00E+00 ir: 1.68E-12 iu: 0.00E+00 rsn:   0
  1 2r: 1.59E-15 2x: 6.45E+07 2u: 5.90E-05 ir: 7.66E-17 iu: 1.13E-06 rsn: itol_upd
 Step     15 Time=  1.50000E-01 Dt=  5.00000E-02 [y] snes_conv_reason:   11
  newton =   1 [      15] linear =   116 [      1333] cuts =  0 [   0]
  --> max chng: dpmx=   1.1325E-06 dtmpmx=   5.0511E-07

== TH FLOW =====================================================================
  0 2r: 1.20E-10 2x: 0.00E+00 2u: 0.00E+00 ir: 1.68E-12 iu: 0.00E+00 rsn:   0
  1 2r: 1.65E-15 2x: 6.45E+07 2u: 6.00E-05 ir: 8.69E-17 iu: 1.17E-06 rsn: itol_upd
 Step     16 Time=  2.00000E-01 Dt=  5.00000E-02 [y] snes_conv_reason:   11
  newton =   1 [      16] linear =   117 [      1450] cuts =  0 [   0]
  --> max chng: dpmx=   1.1716E-06 dtmpmx=   5.0511E-07

== TH FLOW =====================================================================
  0 2r: 1.66E-04 2x: 0.00E+00 2u: 0.00E+00 ir: 1.27E-04 iu: 0.00E+00 rsn:   0
  1 2r: 1.68E-04 2x: 6.47E+07 2u: 2.65E+05 ir: 1.46E-04 iu: 9.07E+03 rsn:   0
  2 2r: 2.20E-05 2x: 6.47E+07 2u: 5.86E+02 ir: 1.95E-05 iu: 1.82E+02 rsn:   0
  3 2r: 2.62E-07 2x: 6.47E+07 2u: 3.19E+02 ir: 2.27E-07 iu: 2.27E+01 rsn:   0
  4 2r: 6.68E-10 2x: 6.47E+07 2u: 5.52E+01 ir: 5.33E-10 iu: 2.83E+00 rsn: rtol
 Step     17 Time=  2.50000E-01 Dt=  5.00000E-02 [y] snes_conv_reason:    3
  newton =   4 [      20] linear =   477 [      1927] cuts =  0 [   0]
  --> max chng: dpmx=   8.9183E+03 dtmpmx=   3.5020E+00

== TH FLOW =====================================================================
  0 2r: 1.49E-05 2x: 0.00E+00 2u: 0.00E+00 ir: 1.16E-05 iu: 0.00E+00 rsn:   0
  1 2r: 7.92E-08 2x: 6.47E+07 2u: 3.15E+02 ir: 5.22E-08 iu: 5.76E+01 rsn:   0
  2 2r: 2.08E-12 2x: 6.47E+07 2u: 3.62E+01 ir: 1.65E-12 iu: 9.90E-01 rsn: itol_upd
 Step     18 Time=  3.00000E-01 Dt=  5.00000E-02 [y] snes_conv_reason:   11
  newton =   2 [      22] linear =   214 [      2141] cuts =  0 [   0]
  --> max chng: dpmx=   5.7721E+01 dtmpmx=   1.2057E+00

== TH FLOW =====================================================================
  0 2r: 1.00E-05 2x: 0.00E+00 2u: 0.00E+00 ir: 4.01E-06 iu: 0.00E+00 rsn:   0
  1 2r: 3.04E-08 2x: 6.47E+07 2u: 7.20E+01 ir: 1.01E-08 iu: 3.01E+01 rsn:   0
  2 2r: 2.14E-13 2x: 6.47E+07 2u: 1.20E+01 ir: 1.22E-13 iu: 2.98E-01 rsn: itol_upd
 Step     19 Time=  3.50000E-01 Dt=  5.00000E-02 [y] snes_conv_reason:   11
  newton =   2 [      24] linear =   230 [      2371] cuts =  0 [   0]
  --> max chng: dpmx=   3.0201E+01 dtmpmx=   8.5199E-01

== TH FLOW =====================================================================
  0 2r: 8.37E-06 2x: 0.00E+00 2u: 0.00E+00 ir: 2.83E-06 iu: 0.00E+00 rsn:   0
  1 2r: 1.49E-08 2x: 6.47E+07 2u: 6.45E+01 ir: 5.05E-09 iu: 1.91E+01 rsn:   0
  2 2r: 4.46E-14 2x: 6.47E+07 2u: 3.44E+00 ir: 1.25E-14 iu: 8.06E-02 rsn: itol_upd
 Step     20 Time=  4.00000E-01 Dt=  5.00000E-02 [y] snes_conv_reason:   11
  newton =   2 [      26] linear =   232 [      2603] cuts =  0 [   0]
  --> max chng: dpmx=   1.9089E+01 dtmpmx=   6.1736E-01

== TH FLOW =====================================================================
  0 2r: 7.40E-06 2x: 0.00E+00 2u: 0.00E+00 ir: 2.05E-06 iu: 0.00E+00 rsn:   0
  1 2r: 8.44E-09 2x: 6.47E+07 2u: 6.01E+01 ir: 2.18E-09 iu: 1.42E+01 rsn:   0
  2 2r: 2.95E-14 2x: 6.47E+07 2u: 1.13E+00 ir: 7.19E-15 iu: 7.76E-02 rsn: itol_upd
 Step     21 Time=  4.50000E-01 Dt=  5.00000E-02 [y] snes_conv_reason:   11
  newton =   2 [      28] linear =   222 [      2825] cuts =  0 [   0]
  --> max chng: dpmx=   1.4106E+01 dtmpmx=   5.4503E-01

== TH FLOW =====================================================================
  0 2r: 6.75E-06 2x: 0.00E+00 2u: 0.00E+00 ir: 1.81E-06 iu: 0.00E+00 rsn:   0
  1 2r: 5.82E-09 2x: 6.47E+07 2u: 5.73E+01 ir: 1.34E-09 iu: 1.14E+01 rsn: rtol
 Step     22 Time=  5.00000E-01 Dt=  5.00000E-02 [y] snes_conv_reason:    3
  newton =   1 [      29] linear =   108 [      2933] cuts =  0 [   0]
  --> max chng: dpmx=   1.1442E+01 dtmpmx=   4.5891E-01

== TH FLOW =====================================================================
  0 2r: 6.28E-06 2x: 0.00E+00 2u: 0.00E+00 ir: 1.53E-06 iu: 0.00E+00 rsn:   0
  1 2r: 4.13E-09 2x: 6.47E+07 2u: 5.55E+01 ir: 1.14E-09 iu: 9.62E+00 rsn: rtol
 Step     23 Time=  5.50000E-01 Dt=  5.00000E-02 [y] snes_conv_reason:    3
  newton =   1 [      30] linear =   109 [      3042] cuts =  0 [   0]
  --> max chng: dpmx=   9.6217E+00 dtmpmx=   3.8261E-01

== TH FLOW =====================================================================
  0 2r: 5.91E-06 2x: 0.00E+00 2u: 0.00E+00 ir: 1.27E-06 iu: 0.00E+00 rsn:   0
  1 2r: 3.13E-09 2x: 6.47E+07 2u: 5.38E+01 ir: 8.94E-10 iu: 8.39E+00 rsn: rtol
 Step     24 Time=  6.00000E-01 Dt=  5.00000E-02 [y] snes_conv_reason:    3
  newton =   1 [      31] linear =   114 [      3156] cuts =  0 [   0]
  --> max chng: dpmx=   8.3877E+00 dtmpmx=   3.6360E-01

== TH FLOW =====================================================================
  0 2r: 5.60E-06 2x: 0.00E+00 2u: 0.00E+00 ir: 1.21E-06 iu: 0.00E+00 rsn:   0
  1 2r: 2.44E-09 2x: 6.47E+07 2u: 5.27E+01 ir: 6.54E-10 iu: 7.46E+00 rsn: rtol
 Step     25 Time=  6.50000E-01 Dt=  5.00000E-02 [y] snes_conv_reason:    3
  newton =   1 [      32] linear =   121 [      3277] cuts =  0 [   0]
  --> max chng: dpmx=   7.4604E+00 dtmpmx=   3.3637E-01

== TH FLOW =====================================================================
  0 2r: 5.35E-06 2x: 0.00E+00 2u: 0.00E+00 ir: 1.12E-06 iu: 0.00E+00 rsn:   0
  1 2r: 1.96E-09 2x: 6.47E+07 2u: 5.19E+01 ir: 4.61E-10 iu: 6.74E+00 rsn: rtol
 Step     26 Time=  7.00000E-01 Dt=  5.00000E-02 [y] snes_conv_reason:    3
  newton =   1 [      33] linear =   121 [      3398] cuts =  0 [   0]
  --> max chng: dpmx=   6.7366E+00 dtmpmx=   3.0495E-01

== TH FLOW =====================================================================
  0 2r: 5.13E-06 2x: 0.00E+00 2u: 0.00E+00 ir: 1.01E-06 iu: 0.00E+00 rsn:   0
  1 2r: 1.61E-09 2x: 6.47E+07 2u: 5.13E+01 ir: 3.25E-10 iu: 6.15E+00 rsn: rtol
 Step     27 Time=  7.50000E-01 Dt=  5.00000E-02 [y] snes_conv_reason:    3
  newton =   1 [      34] linear =   114 [      3512] cuts =  0 [   0]
  --> max chng: dpmx=   6.1545E+00 dtmpmx=   2.7249E-01

== TH FLOW =====================================================================
  0 2r: 4.94E-06 2x: 0.00E+00 2u: 0.00E+00 ir: 9.06E-07 iu: 0.00E+00 rsn:   0
  1 2r: 1.36E-09 2x: 6.47E+07 2u: 5.04E+01 ir: 2.67E-10 iu: 5.68E+00 rsn: rtol
 Step     28 Time=  8.00000E-01 Dt=  5.00000E-02 [y] snes_conv_reason:    3
  newton =   1 [      35] linear =   123 [      3635] cuts =  0 [   0]
  --> max chng: dpmx=   5.6782E+00 dtmpmx=   2.6269E-01

== TH FLOW =====================================================================
  0 2r: 4.78E-06 2x: 0.00E+00 2u: 0.00E+00 ir: 8.73E-07 iu: 0.00E+00 rsn:   0
  1 2r: 1.16E-09 2x: 6.47E+07 2u: 4.97E+01 ir: 2.52E-10 iu: 5.28E+00 rsn: rtol
 Step     29 Time=  8.50000E-01 Dt=  5.00000E-02 [y] snes_conv_reason:    3
  newton =   1 [      36] linear =   122 [      3757] cuts =  0 [   0]
  --> max chng: dpmx=   5.2814E+00 dtmpmx=   2.5204E-01

== TH FLOW =====================================================================
  0 2r: 4.63E-06 2x: 0.00E+00 2u: 0.00E+00 ir: 8.38E-07 iu: 0.00E+00 rsn:   0
  1 2r: 9.98E-10 2x: 6.47E+07 2u: 4.96E+01 ir: 2.27E-10 iu: 4.95E+00 rsn: rtol
 Step     30 Time=  9.00000E-01 Dt=  5.00000E-02 [y] snes_conv_reason:    3
  newton =   1 [      37] linear =   122 [      3879] cuts =  0 [   0]
  --> max chng: dpmx=   4.9471E+00 dtmpmx=   2.3867E-01

== TH FLOW =====================================================================
  0 2r: 4.50E-06 2x: 0.00E+00 2u: 0.00E+00 ir: 7.93E-07 iu: 0.00E+00 rsn:   0
  1 2r: 8.71E-10 2x: 6.47E+07 2u: 4.94E+01 ir: 1.98E-10 iu: 4.66E+00 rsn: rtol
 Step     31 Time=  9.50000E-01 Dt=  5.00000E-02 [y] snes_conv_reason:    3
  newton =   1 [      38] linear =   125 [      4004] cuts =  0 [   0]
  --> max chng: dpmx=   4.6592E+00 dtmpmx=   2.2355E-01

== TH FLOW =====================================================================
  0 2r: 4.38E-06 2x: 0.00E+00 2u: 0.00E+00 ir: 7.43E-07 iu: 0.00E+00 rsn:   0
  1 2r: 7.66E-10 2x: 6.47E+07 2u: 4.91E+01 ir: 1.68E-10 iu: 4.41E+00 rsn: rtol
 Step     32 Time=  1.00000E+00 Dt=  5.00000E-02 [y] snes_conv_reason:    3
  newton =   1 [      39] linear =   123 [      4127] cuts =  0 [   0]
  --> max chng: dpmx=   4.4147E+00 dtmpmx=   2.0753E-01

== TH FLOW =====================================================================
  0 2r: 4.27E-06 2x: 0.00E+00 2u: 0.00E+00 ir: 6.90E-07 iu: 0.00E+00 rsn:   0
  1 2r: 6.79E-10 2x: 6.47E+07 2u: 4.87E+01 ir: 1.40E-10 iu: 4.20E+00 rsn: rtol
 Step     33 Time=  1.05000E+00 Dt=  5.00000E-02 [y] snes_conv_reason:    3
  newton =   1 [      40] linear =   122 [      4249] cuts =  0 [   0]
  --> max chng: dpmx=   4.1978E+00 dtmpmx=   2.0040E-01

== TH FLOW =====================================================================
  0 2r: 4.17E-06 2x: 0.00E+00 2u: 0.00E+00 ir: 6.66E-07 iu: 0.00E+00 rsn:   0
  1 2r: 6.06E-10 2x: 6.47E+07 2u: 4.86E+01 ir: 1.15E-10 iu: 4.01E+00 rsn: rtol
 Step     34 Time=  1.10000E+00 Dt=  5.00000E-02 [y] snes_conv_reason:    3
  newton =   1 [      41] linear =   122 [      4371] cuts =  0 [   0]
  --> max chng: dpmx=   4.0067E+00 dtmpmx=   1.9555E-01

== TH FLOW =====================================================================
  0 2r: 4.08E-06 2x: 0.00E+00 2u: 0.00E+00 ir: 6.50E-07 iu: 0.00E+00 rsn:   0
  1 2r: 5.45E-10 2x: 6.47E+07 2u: 4.85E+01 ir: 9.62E-11 iu: 3.84E+00 rsn: rtol
 Step     35 Time=  1.15000E+00 Dt=  5.00000E-02 [y] snes_conv_reason:    3
  newton =   1 [      42] linear =   123 [      4494] cuts =  0 [   0]
  --> max chng: dpmx=   3.8356E+00 dtmpmx=   1.8919E-01

== TH FLOW =====================================================================
  0 2r: 3.99E-06 2x: 0.00E+00 2u: 0.00E+00 ir: 6.29E-07 iu: 0.00E+00 rsn:   0
  1 2r: 4.93E-10 2x: 6.47E+07 2u: 4.83E+01 ir: 8.04E-11 iu: 3.68E+00 rsn: rtol
 Step     36 Time=  1.20000E+00 Dt=  5.00000E-02 [y] snes_conv_reason:    3
  newton =   1 [      43] linear =   121 [      4615] cuts =  0 [   0]
  --> max chng: dpmx=   3.6813E+00 dtmpmx=   1.8167E-01

== TH FLOW =====================================================================
  0 2r: 3.91E-06 2x: 0.00E+00 2u: 0.00E+00 ir: 6.04E-07 iu: 0.00E+00 rsn:   0
  1 2r: 4.48E-10 2x: 6.47E+07 2u: 4.81E+01 ir: 7.69E-11 iu: 3.54E+00 rsn: rtol
 Step     37 Time=  1.25000E+00 Dt=  5.00000E-02 [y] snes_conv_reason:    3
  newton =   1 [      44] linear =   121 [      4736] cuts =  0 [   0]
  --> max chng: dpmx=   3.5420E+00 dtmpmx=   1.7329E-01

== TH FLOW =====================================================================
  0 2r: 3.84E-06 2x: 0.00E+00 2u: 0.00E+00 ir: 5.76E-07 iu: 0.00E+00 rsn:   0
  1 2r: 4.09E-10 2x: 6.47E+07 2u: 4.82E+01 ir: 7.32E-11 iu: 3.42E+00 rsn: rtol
 Step     38 Time=  1.30000E+00 Dt=  5.00000E-02 [y] snes_conv_reason:    3
  newton =   1 [      45] linear =   121 [      4857] cuts =  0 [   0]
  --> max chng: dpmx=   3.4175E+00 dtmpmx=   1.6434E-01

== TH FLOW =====================================================================
  0 2r: 3.77E-06 2x: 0.00E+00 2u: 0.00E+00 ir: 5.46E-07 iu: 0.00E+00 rsn:   0
  1 2r: 3.75E-10 2x: 6.47E+07 2u: 4.81E+01 ir: 6.84E-11 iu: 3.30E+00 rsn: rtol
 Step     39 Time=  1.35000E+00 Dt=  5.00000E-02 [y] snes_conv_reason:    3
  newton =   1 [      46] linear =   119 [      4976] cuts =  0 [   0]
  --> max chng: dpmx=   3.3038E+00 dtmpmx=   1.5785E-01

== TH FLOW =====================================================================
  0 2r: 3.70E-06 2x: 0.00E+00 2u: 0.00E+00 ir: 5.25E-07 iu: 0.00E+00 rsn:   0
  1 2r: 3.45E-10 2x: 6.47E+07 2u: 4.81E+01 ir: 6.30E-11 iu: 3.20E+00 rsn: rtol
 Step     40 Time=  1.40000E+00 Dt=  5.00000E-02 [y] snes_conv_reason:    3
  newton =   1 [      47] linear =   117 [      5093] cuts =  0 [   0]
  --> max chng: dpmx=   3.2001E+00 dtmpmx=   1.5558E-01

== TH FLOW =====================================================================
  0 2r: 3.64E-06 2x: 0.00E+00 2u: 0.00E+00 ir: 5.17E-07 iu: 0.00E+00 rsn:   0
  1 2r: 3.19E-10 2x: 6.47E+07 2u: 4.80E+01 ir: 5.72E-11 iu: 3.11E+00 rsn: rtol
 Step     41 Time=  1.45000E+00 Dt=  5.00000E-02 [y] snes_conv_reason:    3
  newton =   1 [      48] linear =   117 [      5210] cuts =  0 [   0]
  --> max chng: dpmx=   3.1054E+00 dtmpmx=   1.5245E-01

== TH FLOW =====================================================================
  0 2r: 3.59E-06 2x: 0.00E+00 2u: 0.00E+00 ir: 5.07E-07 iu: 0.00E+00 rsn:   0
  1 2r: 2.96E-10 2x: 6.47E+07 2u: 4.81E+01 ir: 5.14E-11 iu: 3.02E+00 rsn: rtol
 Step     42 Time=  1.50000E+00 Dt=  5.00000E-02 [y] snes_conv_reason:    3
  newton =   1 [      49] linear =   116 [      5326] cuts =  0 [   0]
  --> max chng: dpmx=   3.0190E+00 dtmpmx=   1.4860E-01

== TH FLOW =====================================================================
  0 2r: 3.53E-06 2x: 0.00E+00 2u: 0.00E+00 ir: 4.94E-07 iu: 0.00E+00 rsn:   0
  1 2r: 2.75E-10 2x: 6.47E+07 2u: 4.80E+01 ir: 4.59E-11 iu: 2.94E+00 rsn: rtol
 Step     43 Time=  1.55000E+00 Dt=  5.00000E-02 [y] snes_conv_reason:    3
  newton =   1 [      50] linear =   116 [      5442] cuts =  0 [   0]
  --> max chng: dpmx=   2.9392E+00 dtmpmx=   1.4417E-01

== TH FLOW =====================================================================
  0 2r: 3.48E-06 2x: 0.00E+00 2u: 0.00E+00 ir: 4.79E-07 iu: 0.00E+00 rsn:   0
  1 2r: 2.56E-10 2x: 6.47E+07 2u: 4.80E+01 ir: 4.06E-11 iu: 2.87E+00 rsn: rtol
 Step     44 Time=  1.60000E+00 Dt=  5.00000E-02 [y] snes_conv_reason:    3
  newton =   1 [      51] linear =   116 [      5558] cuts =  0 [   0]
  --> max chng: dpmx=   2.8656E+00 dtmpmx=   1.3926E-01

== TH FLOW =====================================================================
  0 2r: 3.43E-06 2x: 0.00E+00 2u: 0.00E+00 ir: 4.63E-07 iu: 0.00E+00 rsn:   0
  1 2r: 2.39E-10 2x: 6.47E+07 2u: 4.79E+01 ir: 3.78E-11 iu: 2.80E+00 rsn: rtol
 Step     45 Time=  1.65000E+00 Dt=  5.00000E-02 [y] snes_conv_reason:    3
  newton =   1 [      52] linear =   115 [      5673] cuts =  0 [   0]
  --> max chng: dpmx=   2.7973E+00 dtmpmx=   1.3400E-01

== TH FLOW =====================================================================
  0 2r: 3.38E-06 2x: 0.00E+00 2u: 0.00E+00 ir: 4.45E-07 iu: 0.00E+00 rsn:   0
  1 2r: 2.24E-10 2x: 6.47E+07 2u: 4.81E+01 ir: 3.49E-11 iu: 2.74E+00 rsn: rtol
 Step     46 Time=  1.70000E+00 Dt=  5.00000E-02 [y] snes_conv_reason:    3
  newton =   1 [      53] linear =   115 [      5788] cuts =  0 [   0]
  --> max chng: dpmx=   2.7355E+00 dtmpmx=   1.2977E-01

== TH FLOW =====================================================================
  0 2r: 3.34E-06 2x: 0.00E+00 2u: 0.00E+00 ir: 4.31E-07 iu: 0.00E+00 rsn:   0
  1 2r: 2.10E-10 2x: 6.47E+07 2u: 4.79E+01 ir: 3.20E-11 iu: 2.68E+00 rsn: rtol
 Step     47 Time=  1.75000E+00 Dt=  5.00000E-02 [y] snes_conv_reason:    3
  newton =   1 [      54] linear =   115 [      5903] cuts =  0 [   0]
  --> max chng: dpmx=   2.6759E+00 dtmpmx=   1.2824E-01

== TH FLOW =====================================================================
  0 2r: 3.30E-06 2x: 0.00E+00 2u: 0.00E+00 ir: 4.26E-07 iu: 0.00E+00 rsn:   0
  1 2r: 1.97E-10 2x: 6.47E+07 2u: 4.81E+01 ir: 2.97E-11 iu: 2.62E+00 rsn: rtol
 Step     48 Time=  1.80000E+00 Dt=  5.00000E-02 [y] snes_conv_reason:    3
  newton =   1 [      55] linear =   116 [      6019] cuts =  0 [   0]
  --> max chng: dpmx=   2.6226E+00 dtmpmx=   1.2623E-01

== TH FLOW =====================================================================
  0 2r: 3.26E-06 2x: 0.00E+00 2u: 0.00E+00 ir: 4.20E-07 iu: 0.00E+00 rsn:   0
  1 2r: 1.86E-10 2x: 6.47E+07 2u: 4.81E+01 ir: 2.85E-11 iu: 2.57E+00 rsn: rtol
 Step     49 Time=  1.85000E+00 Dt=  5.00000E-02 [y] snes_conv_reason:    3
  newton =   1 [      56] linear =   119 [      6138] cuts =  0 [   0]
  --> max chng: dpmx=   2.5726E+00 dtmpmx=   1.2379E-01

== TH FLOW =====================================================================
  0 2r: 3.22E-06 2x: 0.00E+00 2u: 0.00E+00 ir: 4.12E-07 iu: 0.00E+00 rsn:   0
  1 2r: 1.75E-10 2x: 6.47E+07 2u: 4.81E+01 ir: 2.72E-11 iu: 2.53E+00 rsn: rtol
 Step     50 Time=  1.90000E+00 Dt=  5.00000E-02 [y] snes_conv_reason:    3
  newton =   1 [      57] linear =   120 [      6258] cuts =  0 [   0]
  --> max chng: dpmx=   2.5276E+00 dtmpmx=   1.2098E-01

== TH FLOW =====================================================================
  0 2r: 3.18E-06 2x: 0.00E+00 2u: 0.00E+00 ir: 4.02E-07 iu: 0.00E+00 rsn:   0
  1 2r: 1.66E-10 2x: 6.47E+07 2u: 4.82E+01 ir: 2.57E-11 iu: 2.49E+00 rsn: rtol
 Step     51 Time=  1.95000E+00 Dt=  5.00000E-02 [y] snes_conv_reason:    3
  newton =   1 [      58] linear =   122 [      6380] cuts =  0 [   0]
  --> max chng: dpmx=   2.4858E+00 dtmpmx=   1.1818E-01

== TH FLOW =====================================================================
  0 2r: 3.14E-06 2x: 0.00E+00 2u: 0.00E+00 ir: 3.93E-07 iu: 0.00E+00 rsn:   0
  1 2r: 1.57E-10 2x: 6.47E+07 2u: 4.83E+01 ir: 2.41E-11 iu: 2.45E+00 rsn: rtol
 Step     52 Time=  2.00000E+00 Dt=  5.00000E-02 [y] snes_conv_reason:    3
  newton =   1 [      59] linear =   122 [      6502] cuts =  0 [   0]
  --> max chng: dpmx=   2.4464E+00 dtmpmx=   1.1514E-01

== TH FLOW =====================================================================
  0 2r: 3.11E-06 2x: 0.00E+00 2u: 0.00E+00 ir: 3.83E-07 iu: 0.00E+00 rsn:   0
  1 2r: 1.49E-10 2x: 6.47E+07 2u: 4.84E+01 ir: 2.24E-11 iu: 2.41E+00 rsn: rtol
 Step     53 Time=  2.05000E+00 Dt=  5.00000E-02 [y] snes_conv_reason:    3
  newton =   1 [      60] linear =   123 [      6625] cuts =  0 [   0]
  --> max chng: dpmx=   2.4094E+00 dtmpmx=   1.1186E-01

== TH FLOW =====================================================================
  0 2r: 3.08E-06 2x: 0.00E+00 2u: 0.00E+00 ir: 3.72E-07 iu: 0.00E+00 rsn:   0
  1 2r: 1.42E-10 2x: 6.47E+07 2u: 4.84E+01 ir: 2.08E-11 iu: 2.37E+00 rsn: rtol
 Step     54 Time=  2.10000E+00 Dt=  5.00000E-02 [y] snes_conv_reason:    3
  newton =   1 [      61] linear =   123 [      6748] cuts =  0 [   0]
  --> max chng: dpmx=   2.3739E+00 dtmpmx=   1.0938E-01

== TH FLOW =====================================================================
  0 2r: 3.04E-06 2x: 0.00E+00 2u: 0.00E+00 ir: 3.64E-07 iu: 0.00E+00 rsn:   0
  1 2r: 1.35E-10 2x: 6.47E+07 2u: 4.85E+01 ir: 1.91E-11 iu: 2.34E+00 rsn: rtol
 Step     55 Time=  2.15000E+00 Dt=  5.00000E-02 [y] snes_conv_reason:    3
  newton =   1 [      62] linear =   123 [      6871] cuts =  0 [   0]
  --> max chng: dpmx=   2.3411E+00 dtmpmx=   1.0831E-01

== TH FLOW =====================================================================
  0 2r: 3.01E-06 2x: 0.00E+00 2u: 0.00E+00 ir: 3.60E-07 iu: 0.00E+00 rsn:   0
  1 2r: 1.28E-10 2x: 6.47E+07 2u: 4.84E+01 ir: 1.76E-11 iu: 2.31E+00 rsn: rtol
 Step     56 Time=  2.20000E+00 Dt=  5.00000E-02 [y] snes_conv_reason:    3
  newton =   1 [      63] linear =   122 [      6993] cuts =  0 [   0]
  --> max chng: dpmx=   2.3094E+00 dtmpmx=   1.0695E-01

== TH FLOW =====================================================================
  0 2r: 2.98E-06 2x: 0.00E+00 2u: 0.00E+00 ir: 3.56E-07 iu: 0.00E+00 rsn:   0
  1 2r: 1.22E-10 2x: 6.47E+07 2u: 4.87E+01 ir: 1.61E-11 iu: 2.28E+00 rsn: rtol
 Step     57 Time=  2.25000E+00 Dt=  5.00000E-02 [y] snes_conv_reason:    3
  newton =   1 [      64] linear =   124 [      7117] cuts =  0 [   0]
  --> max chng: dpmx=   2.2811E+00 dtmpmx=   1.0531E-01

== TH FLOW =====================================================================
  0 2r: 2.95E-06 2x: 0.00E+00 2u: 0.00E+00 ir: 3.50E-07 iu: 0.00E+00 rsn:   0
  1 2r: 1.17E-10 2x: 6.47E+07 2u: 4.86E+01 ir: 1.51E-11 iu: 2.25E+00 rsn: rtol
 Step     58 Time=  2.30000E+00 Dt=  5.00000E-02 [y] snes_conv_reason:    3
  newton =   1 [      65] linear =   122 [      7239] cuts =  0 [   0]
  --> max chng: dpmx=   2.2528E+00 dtmpmx=   1.0344E-01

== TH FLOW =====================================================================
  0 2r: 2.93E-06 2x: 0.00E+00 2u: 0.00E+00 ir: 3.44E-07 iu: 0.00E+00 rsn:   0
  1 2r: 1.12E-10 2x: 6.47E+07 2u: 4.87E+01 ir: 1.49E-11 iu: 2.23E+00 rsn: rtol
 Step     59 Time=  2.35000E+00 Dt=  5.00000E-02 [y] snes_conv_reason:    3
  newton =   1 [      66] linear =   122 [      7361] cuts =  0 [   0]
  --> max chng: dpmx=   2.2266E+00 dtmpmx=   1.0137E-01

== TH FLOW =====================================================================
  0 2r: 2.90E-06 2x: 0.00E+00 2u: 0.00E+00 ir: 3.37E-07 iu: 0.00E+00 rsn:   0
  1 2r: 1.07E-10 2x: 6.47E+07 2u: 4.87E+01 ir: 1.45E-11 iu: 2.20E+00 rsn: rtol
 Step     60 Time=  2.40000E+00 Dt=  5.00000E-02 [y] snes_conv_reason:    3
  newton =   1 [      67] linear =   125 [      7486] cuts =  0 [   0]
  --> max chng: dpmx=   2.2013E+00 dtmpmx=   9.9429E-02

== TH FLOW =====================================================================
  0 2r: 2.87E-06 2x: 0.00E+00 2u: 0.00E+00 ir: 3.31E-07 iu: 0.00E+00 rsn:   0
  1 2r: 1.02E-10 2x: 6.47E+07 2u: 4.89E+01 ir: 1.41E-11 iu: 2.18E+00 rsn: rtol
 Step     61 Time=  2.45000E+00 Dt=  5.00000E-02 [y] snes_conv_reason:    3
  newton =   1 [      68] linear =   124 [      7610] cuts =  0 [   0]
  --> max chng: dpmx=   2.1786E+00 dtmpmx=   9.7407E-02

== TH FLOW =====================================================================
  0 2r: 2.85E-06 2x: 0.00E+00 2u: 0.00E+00 ir: 3.24E-07 iu: 0.00E+00 rsn:   0
  1 2r: 9.82E-11 2x: 6.47E+07 2u: 4.89E+01 ir: 1.36E-11 iu: 2.16E+00 rsn: rtol
 Step     62 Time=  2.50000E+00 Dt=  5.00000E-02 [y] snes_conv_reason:    3
  newton =   1 [      69] linear =   125 [      7735] cuts =  0 [   0]
  --> max chng: dpmx=   2.1559E+00 dtmpmx=   9.5235E-02

== TH FLOW =====================================================================
  0 2r: 2.82E-06 2x: 0.00E+00 2u: 0.00E+00 ir: 3.17E-07 iu: 0.00E+00 rsn:   0
  1 2r: 9.43E-11 2x: 6.47E+07 2u: 4.90E+01 ir: 1.31E-11 iu: 2.13E+00 rsn: rtol
 Step     63 Time=  2.55000E+00 Dt=  5.00000E-02 [y] snes_conv_reason:    3
  newton =   1 [      70] linear =   124 [      7859] cuts =  0 [   0]
  --> max chng: dpmx=   2.1349E+00 dtmpmx=   9.3840E-02

== TH FLOW =====================================================================
  0 2r: 2.80E-06 2x: 0.00E+00 2u: 0.00E+00 ir: 3.12E-07 iu: 0.00E+00 rsn:   0
  1 2r: 9.06E-11 2x: 6.47E+07 2u: 4.91E+01 ir: 1.25E-11 iu: 2.12E+00 rsn: rtol
 Step     64 Time=  2.60000E+00 Dt=  5.00000E-02 [y] snes_conv_reason:    3
  newton =   1 [      71] linear =   124 [      7983] cuts =  0 [   0]
  --> max chng: dpmx=   2.1152E+00 dtmpmx=   9.3035E-02

== TH FLOW =====================================================================
  0 2r: 2.78E-06 2x: 0.00E+00 2u: 0.00E+00 ir: 3.09E-07 iu: 0.00E+00 rsn:   0
  1 2r: 8.71E-11 2x: 6.47E+07 2u: 4.92E+01 ir: 1.19E-11 iu: 2.10E+00 rsn: rtol
 Step     65 Time=  2.65000E+00 Dt=  5.00000E-02 [y] snes_conv_reason:    3
  newton =   1 [      72] linear =   117 [      8100] cuts =  0 [   0]
  --> max chng: dpmx=   2.0973E+00 dtmpmx=   9.2043E-02

== TH FLOW =====================================================================
  0 2r: 2.76E-06 2x: 0.00E+00 2u: 0.00E+00 ir: 3.06E-07 iu: 0.00E+00 rsn:   0
  1 2r: 8.38E-11 2x: 6.47E+07 2u: 4.93E+01 ir: 1.12E-11 iu: 2.08E+00 rsn: rtol
 Step     66 Time=  2.70000E+00 Dt=  5.00000E-02 [y] snes_conv_reason:    3
  newton =   1 [      73] linear =   122 [      8222] cuts =  0 [   0]
  --> max chng: dpmx=   2.0796E+00 dtmpmx=   9.0878E-02

== TH FLOW =====================================================================
  0 2r: 2.73E-06 2x: 0.00E+00 2u: 0.00E+00 ir: 3.02E-07 iu: 0.00E+00 rsn:   0
  1 2r: 8.07E-11 2x: 6.47E+07 2u: 4.94E+01 ir: 1.06E-11 iu: 2.06E+00 rsn: rtol
 Step     67 Time=  2.75000E+00 Dt=  5.00000E-02 [y] snes_conv_reason:    3
  newton =   1 [      74] linear =   119 [      8341] cuts =  0 [   0]
  --> max chng: dpmx=   2.0635E+00 dtmpmx=   8.9558E-02

== TH FLOW =====================================================================
  0 2r: 2.71E-06 2x: 0.00E+00 2u: 0.00E+00 ir: 2.98E-07 iu: 0.00E+00 rsn:   0
  1 2r: 7.78E-11 2x: 6.47E+07 2u: 4.95E+01 ir: 9.97E-12 iu: 2.05E+00 rsn: rtol
 Step     68 Time=  2.80000E+00 Dt=  5.00000E-02 [y] snes_conv_reason:    3
  newton =   1 [      75] linear =   119 [      8460] cuts =  0 [   0]
  --> max chng: dpmx=   2.0481E+00 dtmpmx=   8.8098E-02

== TH FLOW =====================================================================
  0 2r: 2.69E-06 2x: 0.00E+00 2u: 0.00E+00 ir: 2.93E-07 iu: 0.00E+00 rsn:   0
  1 2r: 7.51E-11 2x: 6.47E+07 2u: 4.95E+01 ir: 9.35E-12 iu: 2.03E+00 rsn: rtol
 Step     69 Time=  2.85000E+00 Dt=  5.00000E-02 [y] snes_conv_reason:    3
  newton =   1 [      76] linear =   120 [      8580] cuts =  0 [   0]
  --> max chng: dpmx=   2.0325E+00 dtmpmx=   8.6741E-02

== TH FLOW =====================================================================
  0 2r: 2.67E-06 2x: 0.00E+00 2u: 0.00E+00 ir: 2.88E-07 iu: 0.00E+00 rsn:   0
  1 2r: 7.25E-11 2x: 6.47E+07 2u: 4.96E+01 ir: 8.75E-12 iu: 2.02E+00 rsn: rtol
 Step     70 Time=  2.90000E+00 Dt=  5.00000E-02 [y] snes_conv_reason:    3
  newton =   1 [      77] linear =   114 [      8694] cuts =  0 [   0]
  --> max chng: dpmx=   2.0182E+00 dtmpmx=   8.5414E-02

== TH FLOW =====================================================================
  0 2r: 2.65E-06 2x: 0.00E+00 2u: 0.00E+00 ir: 2.84E-07 iu: 0.00E+00 rsn:   0
  1 2r: 7.00E-11 2x: 6.47E+07 2u: 4.98E+01 ir: 8.60E-12 iu: 2.01E+00 rsn: rtol
 Step     71 Time=  2.95000E+00 Dt=  5.00000E-02 [y] snes_conv_reason:    3
  newton =   1 [      78] linear =   119 [      8813] cuts =  0 [   0]
  --> max chng: dpmx=   2.0052E+00 dtmpmx=   8.3974E-02

== TH FLOW =====================================================================
  0 2r: 2.63E-06 2x: 0.00E+00 2u: 0.00E+00 ir: 2.79E-07 iu: 0.00E+00 rsn:   0
  1 2r: 6.77E-11 2x: 6.47E+07 2u: 4.98E+01 ir: 8.48E-12 iu: 1.99E+00 rsn: rtol
 Step     72 Time=  3.00000E+00 Dt=  5.00000E-02 [y] snes_conv_reason:    3
  newton =   1 [      79] linear =   117 [      8930] cuts =  0 [   0]
  --> max chng: dpmx=   1.9918E+00 dtmpmx=   8.2433E-02

== TH FLOW =====================================================================
  0 2r: 2.61E-06 2x: 0.00E+00 2u: 0.00E+00 ir: 2.74E-07 iu: 0.00E+00 rsn:   0
  1 2r: 6.55E-11 2x: 6.47E+07 2u: 4.99E+01 ir: 8.30E-12 iu: 1.98E+00 rsn: rtol
 Step     73 Time=  3.05000E+00 Dt=  5.00000E-02 [y] snes_conv_reason:    3
  newton =   1 [      80] linear =   122 [      9052] cuts =  0 [   0]
  --> max chng: dpmx=   1.9794E+00 dtmpmx=   8.1815E-02

== TH FLOW =====================================================================
  0 2r: 2.60E-06 2x: 0.00E+00 2u: 0.00E+00 ir: 2.72E-07 iu: 0.00E+00 rsn:   0
  1 2r: 6.34E-11 2x: 6.47E+07 2u: 5.00E+01 ir: 8.11E-12 iu: 1.97E+00 rsn: rtol
 Step     74 Time=  3.10000E+00 Dt=  5.00000E-02 [y] snes_conv_reason:    3
  newton =   1 [      81] linear =   123 [      9175] cuts =  0 [   0]
  --> max chng: dpmx=   1.9677E+00 dtmpmx=   8.1160E-02

== TH FLOW =====================================================================
  0 2r: 2.58E-06 2x: 0.00E+00 2u: 0.00E+00 ir: 2.70E-07 iu: 0.00E+00 rsn:   0
  1 2r: 6.14E-11 2x: 6.47E+07 2u: 5.01E+01 ir: 7.89E-12 iu: 1.96E+00 rsn: rtol
 Step     75 Time=  3.15000E+00 Dt=  5.00000E-02 [y] snes_conv_reason:    3
  newton =   1 [      82] linear =   123 [      9298] cuts =  0 [   0]
  --> max chng: dpmx=   1.9564E+00 dtmpmx=   8.0382E-02

== TH FLOW =====================================================================
  0 2r: 2.56E-06 2x: 0.00E+00 2u: 0.00E+00 ir: 2.67E-07 iu: 0.00E+00 rsn:   0
  1 2r: 5.95E-11 2x: 6.47E+07 2u: 5.03E+01 ir: 7.64E-12 iu: 1.95E+00 rsn: rtol
 Step     76 Time=  3.20000E+00 Dt=  5.00000E-02 [y] snes_conv_reason:    3
  newton =   1 [      83] linear =   111 [      9409] cuts =  0 [   0]
  --> max chng: dpmx=   1.9459E+00 dtmpmx=   7.9491E-02

== TH FLOW =====================================================================
  0 2r: 2.54E-06 2x: 0.00E+00 2u: 0.00E+00 ir: 2.64E-07 iu: 0.00E+00 rsn:   0
  1 2r: 5.77E-11 2x: 6.47E+07 2u: 5.03E+01 ir: 7.38E-12 iu: 1.94E+00 rsn: rtol
 Step     77 Time=  3.25000E+00 Dt=  5.00000E-02 [y] snes_conv_reason:    3
  newton =   1 [      84] linear =   122 [      9531] cuts =  0 [   0]
  --> max chng: dpmx=   1.9350E+00 dtmpmx=   7.8494E-02

== TH FLOW =====================================================================
  0 2r: 2.53E-06 2x: 0.00E+00 2u: 0.00E+00 ir: 2.61E-07 iu: 0.00E+00 rsn:   0
  1 2r: 5.60E-11 2x: 6.47E+07 2u: 5.04E+01 ir: 7.10E-12 iu: 1.93E+00 rsn: rtol
 Step     78 Time=  3.30000E+00 Dt=  5.00000E-02 [y] snes_conv_reason:    3
  newton =   1 [      85] linear =   122 [      9653] cuts =  0 [   0]
  --> max chng: dpmx=   1.9253E+00 dtmpmx=   7.7410E-02

== TH FLOW =====================================================================
  0 2r: 2.51E-06 2x: 0.00E+00 2u: 0.00E+00 ir: 2.57E-07 iu: 0.00E+00 rsn:   0
  1 2r: 5.43E-11 2x: 6.47E+07 2u: 5.06E+01 ir: 6.81E-12 iu: 1.92E+00 rsn: rtol
 Step     79 Time=  3.35000E+00 Dt=  5.00000E-02 [y] snes_conv_reason:    3
  newton =   1 [      86] linear =   121 [      9774] cuts =  0 [   0]
  --> max chng: dpmx=   1.9164E+00 dtmpmx=   7.6561E-02

== TH FLOW =====================================================================
  0 2r: 2.50E-06 2x: 0.00E+00 2u: 0.00E+00 ir: 2.55E-07 iu: 0.00E+00 rsn:   0
  1 2r: 5.28E-11 2x: 6.47E+07 2u: 5.06E+01 ir: 6.52E-12 iu: 1.91E+00 rsn: rtol
 Step     80 Time=  3.40000E+00 Dt=  5.00000E-02 [y] snes_conv_reason:    3
  newton =   1 [      87] linear =   123 [      9897] cuts =  0 [   0]
  --> max chng: dpmx=   1.9069E+00 dtmpmx=   7.5621E-02

== TH FLOW =====================================================================
  0 2r: 2.48E-06 2x: 0.00E+00 2u: 0.00E+00 ir: 2.51E-07 iu: 0.00E+00 rsn:   0
  1 2r: 5.13E-11 2x: 6.47E+07 2u: 5.07E+01 ir: 6.22E-12 iu: 1.90E+00 rsn: rtol
 Step     81 Time=  3.45000E+00 Dt=  5.00000E-02 [y] snes_conv_reason:    3
  newton =   1 [      88] linear =   124 [     10021] cuts =  0 [   0]
  --> max chng: dpmx=   1.8987E+00 dtmpmx=   7.4597E-02

== TH FLOW =====================================================================
  0 2r: 2.47E-06 2x: 0.00E+00 2u: 0.00E+00 ir: 2.48E-07 iu: 0.00E+00 rsn:   0
  1 2r: 4.98E-11 2x: 6.47E+07 2u: 5.08E+01 ir: 5.93E-12 iu: 1.89E+00 rsn: rtol
 Step     82 Time=  3.50000E+00 Dt=  5.00000E-02 [y] snes_conv_reason:    3
  newton =   1 [      89] linear =   123 [     10144] cuts =  0 [   0]
  --> max chng: dpmx=   1.8904E+00 dtmpmx=   7.3496E-02

== TH FLOW =====================================================================
  0 2r: 2.45E-06 2x: 0.00E+00 2u: 0.00E+00 ir: 2.44E-07 iu: 0.00E+00 rsn:   0
  1 2r: 4.85E-11 2x: 6.47E+07 2u: 5.09E+01 ir: 5.63E-12 iu: 1.88E+00 rsn: rtol
 Step     83 Time=  3.55000E+00 Dt=  5.00000E-02 [y] snes_conv_reason:    3
  newton =   1 [      90] linear =   124 [     10268] cuts =  0 [   0]
  --> max chng: dpmx=   1.8825E+00 dtmpmx=   7.2798E-02

== TH FLOW =====================================================================
  0 2r: 2.44E-06 2x: 0.00E+00 2u: 0.00E+00 ir: 2.42E-07 iu: 0.00E+00 rsn:   0
  1 2r: 4.75E-11 2x: 6.47E+07 2u: 5.10E+01 ir: 6.28E-12 iu: 1.88E+00 rsn: rtol
 Step     84 Time=  3.60000E+00 Dt=  5.00000E-02 [y] snes_conv_reason:    3
  newton =   1 [      91] linear =   124 [     10392] cuts =  0 [   0]
  --> max chng: dpmx=   1.8756E+00 dtmpmx=   7.2315E-02

== TH FLOW =====================================================================
  0 2r: 2.42E-06 2x: 0.00E+00 2u: 0.00E+00 ir: 2.40E-07 iu: 0.00E+00 rsn:   0
  1 2r: 4.59E-11 2x: 6.47E+07 2u: 5.11E+01 ir: 5.47E-12 iu: 1.87E+00 rsn: rtol
 Step     85 Time=  3.65000E+00 Dt=  5.00000E-02 [y] snes_conv_reason:    3
  newton =   1 [      92] linear =   122 [     10514] cuts =  0 [   0]
  --> max chng: dpmx=   1.8691E+00 dtmpmx=   7.1743E-02

== TH FLOW =====================================================================
  0 2r: 2.41E-06 2x: 0.00E+00 2u: 0.00E+00 ir: 2.39E-07 iu: 0.00E+00 rsn:   0
  1 2r: 4.47E-11 2x: 6.47E+07 2u: 5.12E+01 ir: 5.39E-12 iu: 1.86E+00 rsn: rtol
 Step     86 Time=  3.70000E+00 Dt=  5.00000E-02 [y] snes_conv_reason:    3
  newton =   1 [      93] linear =   123 [     10637] cuts =  0 [   0]
  --> max chng: dpmx=   1.8630E+00 dtmpmx=   7.1088E-02

== TH FLOW =====================================================================
  0 2r: 2.40E-06 2x: 0.00E+00 2u: 0.00E+00 ir: 2.36E-07 iu: 0.00E+00 rsn:   0
  1 2r: 4.36E-11 2x: 6.47E+07 2u: 5.13E+01 ir: 5.29E-12 iu: 1.86E+00 rsn: rtol
 Step     87 Time=  3.75000E+00 Dt=  5.00000E-02 [y] snes_conv_reason:    3
  newton =   1 [      94] linear =   124 [     10761] cuts =  0 [   0]
  --> max chng: dpmx=   1.8572E+00 dtmpmx=   7.0355E-02

== TH FLOW =====================================================================
  0 2r: 2.38E-06 2x: 0.00E+00 2u: 0.00E+00 ir: 2.34E-07 iu: 0.00E+00 rsn:   0
  1 2r: 4.25E-11 2x: 6.47E+07 2u: 5.13E+01 ir: 5.18E-12 iu: 1.85E+00 rsn: rtol
 Step     88 Time=  3.80000E+00 Dt=  5.00000E-02 [y] snes_conv_reason:    3
  newton =   1 [      95] linear =   119 [     10880] cuts =  0 [   0]
  --> max chng: dpmx=   1.8509E+00 dtmpmx=   6.9578E-02

== TH FLOW =====================================================================
  0 2r: 2.37E-06 2x: 0.00E+00 2u: 0.00E+00 ir: 2.31E-07 iu: 0.00E+00 rsn:   0
  1 2r: 4.15E-11 2x: 6.47E+07 2u: 5.15E+01 ir: 5.06E-12 iu: 1.85E+00 rsn: rtol
 Step     89 Time=  3.85000E+00 Dt=  5.00000E-02 [y] snes_conv_reason:    3
  newton =   1 [      96] linear =   123 [     11003] cuts =  0 [   0]
  --> max chng: dpmx=   1.8461E+00 dtmpmx=   6.8988E-02

== TH FLOW =====================================================================
  0 2r: 2.36E-06 2x: 0.00E+00 2u: 0.00E+00 ir: 2.29E-07 iu: 0.00E+00 rsn:   0
  1 2r: 4.04E-11 2x: 6.47E+07 2u: 5.16E+01 ir: 4.92E-12 iu: 1.84E+00 rsn: rtol
 Step     90 Time=  3.90000E+00 Dt=  5.00000E-02 [y] snes_conv_reason:    3
  newton =   1 [      97] linear =   120 [     11123] cuts =  0 [   0]
  --> max chng: dpmx=   1.8407E+00 dtmpmx=   6.8328E-02

== TH FLOW =====================================================================
  0 2r: 2.34E-06 2x: 0.00E+00 2u: 0.00E+00 ir: 2.27E-07 iu: 0.00E+00 rsn:   0
  1 2r: 3.95E-11 2x: 6.47E+07 2u: 5.17E+01 ir: 4.78E-12 iu: 1.84E+00 rsn: rtol
 Step     91 Time=  3.95000E+00 Dt=  5.00000E-02 [y] snes_conv_reason:    3
  newton =   1 [      98] linear =   121 [     11244] cuts =  0 [   0]
  --> max chng: dpmx=   1.8355E+00 dtmpmx=   6.7601E-02

== TH FLOW =====================================================================
  0 2r: 2.33E-06 2x: 0.00E+00 2u: 0.00E+00 ir: 2.25E-07 iu: 0.00E+00 rsn:   0
  1 2r: 3.85E-11 2x: 6.47E+07 2u: 5.18E+01 ir: 4.61E-12 iu: 1.83E+00 rsn: rtol
 Step     92 Time=  4.00000E+00 Dt=  5.00000E-02 [y] snes_conv_reason:    3
  newton =   1 [      99] linear =   121 [     11365] cuts =  0 [   0]
  --> max chng: dpmx=   1.8307E+00 dtmpmx=   6.6814E-02

== TH FLOW =====================================================================
  0 2r: 2.32E-06 2x: 0.00E+00 2u: 0.00E+00 ir: 2.22E-07 iu: 0.00E+00 rsn:   0
  1 2r: 3.76E-11 2x: 6.47E+07 2u: 5.19E+01 ir: 4.48E-12 iu: 1.83E+00 rsn: rtol
 Step     93 Time=  4.05000E+00 Dt=  5.00000E-02 [y] snes_conv_reason:    3
  newton =   1 [     100] linear =   118 [     11483] cuts =  0 [   0]
  --> max chng: dpmx=   1.8262E+00 dtmpmx=   6.5970E-02

== TH FLOW =====================================================================
  0 2r: 2.31E-06 2x: 0.00E+00 2u: 0.00E+00 ir: 2.19E-07 iu: 0.00E+00 rsn:   0
  1 2r: 3.68E-11 2x: 6.47E+07 2u: 5.20E+01 ir: 4.32E-12 iu: 1.82E+00 rsn: rtol
 Step     94 Time=  4.10000E+00 Dt=  5.00000E-02 [y] snes_conv_reason:    3
  newton =   1 [     101] linear =   121 [     11604] cuts =  0 [   0]
  --> max chng: dpmx=   1.8218E+00 dtmpmx=   6.5481E-02

== TH FLOW =====================================================================
  0 2r: 2.30E-06 2x: 0.00E+00 2u: 0.00E+00 ir: 2.18E-07 iu: 0.00E+00 rsn:   0
  1 2r: 3.59E-11 2x: 6.47E+07 2u: 5.21E+01 ir: 4.14E-12 iu: 1.82E+00 rsn: rtol
 Step     95 Time=  4.15000E+00 Dt=  5.00000E-02 [y] snes_conv_reason:    3
  newton =   1 [     102] linear =   121 [     11725] cuts =  0 [   0]
  --> max chng: dpmx=   1.8176E+00 dtmpmx=   6.5077E-02

== TH FLOW =====================================================================
  0 2r: 2.29E-06 2x: 0.00E+00 2u: 0.00E+00 ir: 2.16E-07 iu: 0.00E+00 rsn:   0
  1 2r: 3.52E-11 2x: 6.47E+07 2u: 5.22E+01 ir: 4.00E-12 iu: 1.81E+00 rsn: rtol
 Step     96 Time=  4.20000E+00 Dt=  5.00000E-02 [y] snes_conv_reason:    3
  newton =   1 [     103] linear =   121 [     11846] cuts =  0 [   0]
  --> max chng: dpmx=   1.8134E+00 dtmpmx=   6.4610E-02

== TH FLOW =====================================================================
  0 2r: 2.27E-06 2x: 0.00E+00 2u: 0.00E+00 ir: 2.15E-07 iu: 0.00E+00 rsn:   0
  1 2r: 3.44E-11 2x: 6.47E+07 2u: 5.22E+01 ir: 3.98E-12 iu: 1.81E+00 rsn: rtol
 Step     97 Time=  4.25000E+00 Dt=  5.00000E-02 [y] snes_conv_reason:    3
  newton =   1 [     104] linear =   116 [     11962] cuts =  0 [   0]
  --> max chng: dpmx=   1.8092E+00 dtmpmx=   6.4082E-02

== TH FLOW =====================================================================
  0 2r: 2.26E-06 2x: 0.00E+00 2u: 0.00E+00 ir: 2.13E-07 iu: 0.00E+00 rsn:   0
  1 2r: 3.36E-11 2x: 6.47E+07 2u: 5.24E+01 ir: 3.95E-12 iu: 1.81E+00 rsn: rtol
 Step     98 Time=  4.30000E+00 Dt=  5.00000E-02 [y] snes_conv_reason:    3
  newton =   1 [     105] linear =   116 [     12078] cuts =  0 [   0]
  --> max chng: dpmx=   1.8058E+00 dtmpmx=   6.3497E-02

== TH FLOW =====================================================================
  0 2r: 2.25E-06 2x: 0.00E+00 2u: 0.00E+00 ir: 2.11E-07 iu: 0.00E+00 rsn:   0
  1 2r: 3.29E-11 2x: 6.47E+07 2u: 5.25E+01 ir: 3.91E-12 iu: 1.80E+00 rsn: rtol
 Step     99 Time=  4.35000E+00 Dt=  5.00000E-02 [y] snes_conv_reason:    3
  newton =   1 [     106] linear =   120 [     12198] cuts =  0 [   0]
  --> max chng: dpmx=   1.8022E+00 dtmpmx=   6.3067E-02

== TH FLOW =====================================================================
  0 2r: 2.24E-06 2x: 0.00E+00 2u: 0.00E+00 ir: 2.10E-07 iu: 0.00E+00 rsn:   0
  1 2r: 3.22E-11 2x: 6.47E+07 2u: 5.26E+01 ir: 3.86E-12 iu: 1.80E+00 rsn: rtol
 Step    100 Time=  4.40000E+00 Dt=  5.00000E-02 [y] snes_conv_reason:    3
  newton =   1 [     107] linear =   117 [     12315] cuts =  0 [   0]
  --> max chng: dpmx=   1.7990E+00 dtmpmx=   6.2611E-02

== TH FLOW =====================================================================
  0 2r: 2.23E-06 2x: 0.00E+00 2u: 0.00E+00 ir: 2.08E-07 iu: 0.00E+00 rsn:   0
  1 2r: 3.16E-11 2x: 6.47E+07 2u: 5.27E+01 ir: 3.80E-12 iu: 1.80E+00 rsn: rtol
 Step    101 Time=  4.45000E+00 Dt=  5.00000E-02 [y] snes_conv_reason:    3
  newton =   1 [     108] linear =   123 [     12438] cuts =  0 [   0]
  --> max chng: dpmx=   1.7955E+00 dtmpmx=   6.2102E-02

== TH FLOW =====================================================================
  0 2r: 2.22E-06 2x: 0.00E+00 2u: 0.00E+00 ir: 2.06E-07 iu: 0.00E+00 rsn:   0
  1 2r: 3.09E-11 2x: 6.47E+07 2u: 5.28E+01 ir: 3.73E-12 iu: 1.79E+00 rsn: rtol
 Step    102 Time=  4.50000E+00 Dt=  5.00000E-02 [y] snes_conv_reason:    3
  newton =   1 [     109] linear =   123 [     12561] cuts =  0 [   0]
  --> max chng: dpmx=   1.7924E+00 dtmpmx=   6.1542E-02

== TH FLOW =====================================================================
  0 2r: 2.21E-06 2x: 0.00E+00 2u: 0.00E+00 ir: 2.05E-07 iu: 0.00E+00 rsn:   0
  1 2r: 3.03E-11 2x: 6.47E+07 2u: 5.29E+01 ir: 3.65E-12 iu: 1.79E+00 rsn: rtol
 Step    103 Time=  4.55000E+00 Dt=  5.00000E-02 [y] snes_conv_reason:    3
  newton =   1 [     110] linear =   118 [     12679] cuts =  0 [   0]
  --> max chng: dpmx=   1.7893E+00 dtmpmx=   6.0933E-02

== TH FLOW =====================================================================
  0 2r: 2.20E-06 2x: 0.00E+00 2u: 0.00E+00 ir: 2.03E-07 iu: 0.00E+00 rsn:   0
  1 2r: 2.97E-11 2x: 6.47E+07 2u: 5.30E+01 ir: 3.57E-12 iu: 1.79E+00 rsn: rtol
 Step    104 Time=  4.60000E+00 Dt=  5.00000E-02 [y] snes_conv_reason:    3
  newton =   1 [     111] linear =   123 [     12802] cuts =  0 [   0]
  --> max chng: dpmx=   1.7868E+00 dtmpmx=   6.0281E-02

== TH FLOW =====================================================================
  0 2r: 2.19E-06 2x: 0.00E+00 2u: 0.00E+00 ir: 2.00E-07 iu: 0.00E+00 rsn:   0
  1 2r: 2.91E-11 2x: 6.47E+07 2u: 5.31E+01 ir: 3.48E-12 iu: 1.78E+00 rsn: rtol
 Step    105 Time=  4.65000E+00 Dt=  5.00000E-02 [y] snes_conv_reason:    3
  newton =   1 [     112] linear =   122 [     12924] cuts =  0 [   0]
  --> max chng: dpmx=   1.7843E+00 dtmpmx=   5.9743E-02

== TH FLOW =====================================================================
  0 2r: 2.18E-06 2x: 0.00E+00 2u: 0.00E+00 ir: 1.99E-07 iu: 0.00E+00 rsn:   0
  1 2r: 2.86E-11 2x: 6.47E+07 2u: 5.32E+01 ir: 3.39E-12 iu: 1.78E+00 rsn: rtol
 Step    106 Time=  4.70000E+00 Dt=  5.00000E-02 [y] snes_conv_reason:    3
  newton =   1 [     113] linear =   123 [     13047] cuts =  0 [   0]
  --> max chng: dpmx=   1.7826E+00 dtmpmx=   5.9421E-02

== TH FLOW =====================================================================
  0 2r: 2.17E-06 2x: 0.00E+00 2u: 0.00E+00 ir: 1.98E-07 iu: 0.00E+00 rsn:   0
  1 2r: 2.80E-11 2x: 6.47E+07 2u: 5.33E+01 ir: 3.30E-12 iu: 1.78E+00 rsn: rtol
 Step    107 Time=  4.75000E+00 Dt=  5.00000E-02 [y] snes_conv_reason:    3
  newton =   1 [     114] linear =   122 [     13169] cuts =  0 [   0]
  --> max chng: dpmx=   1.7805E+00 dtmpmx=   5.9049E-02

== TH FLOW =====================================================================
  0 2r: 2.16E-06 2x: 0.00E+00 2u: 0.00E+00 ir: 1.96E-07 iu: 0.00E+00 rsn:   0
  1 2r: 2.75E-11 2x: 6.47E+07 2u: 5.34E+01 ir: 3.20E-12 iu: 1.78E+00 rsn: rtol
 Step    108 Time=  4.80000E+00 Dt=  5.00000E-02 [y] snes_conv_reason:    3
  newton =   1 [     115] linear =   118 [     13287] cuts =  0 [   0]
  --> max chng: dpmx=   1.7787E+00 dtmpmx=   5.8631E-02

== TH FLOW =====================================================================
  0 2r: 2.16E-06 2x: 0.00E+00 2u: 0.00E+00 ir: 1.95E-07 iu: 0.00E+00 rsn:   0
  1 2r: 2.70E-11 2x: 6.47E+07 2u: 5.35E+01 ir: 3.10E-12 iu: 1.78E+00 rsn: rtol
 Step    109 Time=  4.85000E+00 Dt=  5.00000E-02 [y] snes_conv_reason:    3
  newton =   1 [     116] linear =   122 [     13409] cuts =  0 [   0]
  --> max chng: dpmx=   1.7767E+00 dtmpmx=   5.8254E-02

== TH FLOW =====================================================================
  0 2r: 2.15E-06 2x: 0.00E+00 2u: 0.00E+00 ir: 1.94E-07 iu: 0.00E+00 rsn:   0
  1 2r: 2.65E-11 2x: 6.47E+07 2u: 5.36E+01 ir: 3.00E-12 iu: 1.77E+00 rsn: rtol
 Step    110 Time=  4.90000E+00 Dt=  5.00000E-02 [y] snes_conv_reason:    3
  newton =   1 [     117] linear =   122 [     13531] cuts =  0 [   0]
  --> max chng: dpmx=   1.7749E+00 dtmpmx=   5.7951E-02

== TH FLOW =====================================================================
  0 2r: 2.14E-06 2x: 0.00E+00 2u: 0.00E+00 ir: 1.93E-07 iu: 0.00E+00 rsn:   0
  1 2r: 2.60E-11 2x: 6.47E+07 2u: 5.37E+01 ir: 2.93E-12 iu: 1.77E+00 rsn: rtol
 Step    111 Time=  4.95000E+00 Dt=  5.00000E-02 [y] snes_conv_reason:    3
  newton =   1 [     118] linear =   123 [     13654] cuts =  0 [   0]
  --> max chng: dpmx=   1.7737E+00 dtmpmx=   5.7602E-02

== TH FLOW =====================================================================
  0 2r: 2.13E-06 2x: 0.00E+00 2u: 0.00E+00 ir: 1.91E-07 iu: 0.00E+00 rsn:   0
  1 2r: 2.55E-11 2x: 6.47E+07 2u: 5.38E+01 ir: 2.91E-12 iu: 1.77E+00 rsn: rtol
 Step    112 Time=  5.00000E+00 Dt=  5.00000E-02 [y] snes_conv_reason:    3
  newton =   1 [     119] linear =   123 [     13777] cuts =  0 [   0]
  --> max chng: dpmx=   1.7719E+00 dtmpmx=   5.7210E-02

== TH FLOW =====================================================================
  0 2r: 2.12E-06 2x: 0.00E+00 2u: 0.00E+00 ir: 1.90E-07 iu: 0.00E+00 rsn:   0
  1 2r: 2.51E-11 2x: 6.47E+07 2u: 5.39E+01 ir: 2.88E-12 iu: 1.77E+00 rsn: rtol
 Step    113 Time=  5.05000E+00 Dt=  5.00000E-02 [y] snes_conv_reason:    3
  newton =   1 [     120] linear =   120 [     13897] cuts =  0 [   0]
  --> max chng: dpmx=   1.7702E+00 dtmpmx=   5.6778E-02

== TH FLOW =====================================================================
  0 2r: 2.11E-06 2x: 0.00E+00 2u: 0.00E+00 ir: 1.89E-07 iu: 0.00E+00 rsn:   0
  1 2r: 2.47E-11 2x: 6.47E+07 2u: 5.40E+01 ir: 2.85E-12 iu: 1.77E+00 rsn: rtol
 Step    114 Time=  5.10000E+00 Dt=  5.00000E-02 [y] snes_conv_reason:    3
  newton =   1 [     121] linear =   121 [     14018] cuts =  0 [   0]
  --> max chng: dpmx=   1.7692E+00 dtmpmx=   5.6306E-02

== TH FLOW =====================================================================
  0 2r: 2.10E-06 2x: 0.00E+00 2u: 0.00E+00 ir: 1.87E-07 iu: 0.00E+00 rsn:   0
  1 2r: 2.42E-11 2x: 6.47E+07 2u: 5.41E+01 ir: 2.81E-12 iu: 1.77E+00 rsn: rtol
 Step    115 Time=  5.15000E+00 Dt=  5.00000E-02 [y] snes_conv_reason:    3
  newton =   1 [     122] linear =   122 [     14140] cuts =  0 [   0]
  --> max chng: dpmx=   1.7674E+00 dtmpmx=   5.5798E-02

== TH FLOW =====================================================================
  0 2r: 2.10E-06 2x: 0.00E+00 2u: 0.00E+00 ir: 1.85E-07 iu: 0.00E+00 rsn:   0
  1 2r: 2.38E-11 2x: 6.47E+07 2u: 5.42E+01 ir: 2.76E-12 iu: 1.77E+00 rsn: rtol
 Step    116 Time=  5.20000E+00 Dt=  5.00000E-02 [y] snes_conv_reason:    3
  newton =   1 [     123] linear =   121 [     14261] cuts =  0 [   0]
  --> max chng: dpmx=   1.7661E+00 dtmpmx=   5.5353E-02

== TH FLOW =====================================================================
  0 2r: 2.09E-06 2x: 0.00E+00 2u: 0.00E+00 ir: 1.84E-07 iu: 0.00E+00 rsn:   0
  1 2r: 2.34E-11 2x: 6.47E+07 2u: 5.43E+01 ir: 2.72E-12 iu: 1.76E+00 rsn: rtol
 Step    117 Time=  5.25000E+00 Dt=  5.00000E-02 [y] snes_conv_reason:    3
  newton =   1 [     124] linear =   121 [     14382] cuts =  0 [   0]
  --> max chng: dpmx=   1.7649E+00 dtmpmx=   5.5077E-02

== TH FLOW =====================================================================
  0 2r: 2.08E-06 2x: 0.00E+00 2u: 0.00E+00 ir: 1.83E-07 iu: 0.00E+00 rsn:   0
  1 2r: 2.30E-11 2x: 6.47E+07 2u: 5.44E+01 ir: 2.67E-12 iu: 1.76E+00 rsn: rtol
 Step    118 Time=  5.30000E+00 Dt=  5.00000E-02 [y] snes_conv_reason:    3
  newton =   1 [     125] linear =   121 [     14503] cuts =  0 [   0]
  --> max chng: dpmx=   1.7636E+00 dtmpmx=   5.4761E-02

== TH FLOW =====================================================================
  0 2r: 2.07E-06 2x: 0.00E+00 2u: 0.00E+00 ir: 1.82E-07 iu: 0.00E+00 rsn:   0
  1 2r: 2.27E-11 2x: 6.47E+07 2u: 5.45E+01 ir: 2.61E-12 iu: 1.76E+00 rsn: rtol
 Step    119 Time=  5.35000E+00 Dt=  5.00000E-02 [y] snes_conv_reason:    3
  newton =   1 [     126] linear =   121 [     14624] cuts =  0 [   0]
  --> max chng: dpmx=   1.7626E+00 dtmpmx=   5.4409E-02

== TH FLOW =====================================================================
  0 2r: 2.06E-06 2x: 0.00E+00 2u: 0.00E+00 ir: 1.81E-07 iu: 0.00E+00 rsn:   0
  1 2r: 2.23E-11 2x: 6.47E+07 2u: 5.46E+01 ir: 2.55E-12 iu: 1.76E+00 rsn: rtol
 Step    120 Time=  5.40000E+00 Dt=  5.00000E-02 [y] snes_conv_reason:    3
  newton =   1 [     127] linear =   118 [     14742] cuts =  0 [   0]
  --> max chng: dpmx=   1.7614E+00 dtmpmx=   5.4035E-02

== TH FLOW =====================================================================
  0 2r: 2.06E-06 2x: 0.00E+00 2u: 0.00E+00 ir: 1.80E-07 iu: 0.00E+00 rsn:   0
  1 2r: 2.19E-11 2x: 6.47E+07 2u: 5.46E+01 ir: 2.49E-12 iu: 1.76E+00 rsn: rtol
 Step    121 Time=  5.45000E+00 Dt=  5.00000E-02 [y] snes_conv_reason:    3
  newton =   1 [     128] linear =   120 [     14862] cuts =  0 [   0]
  --> max chng: dpmx=   1.7602E+00 dtmpmx=   5.3808E-02

== TH FLOW =====================================================================
  0 2r: 2.05E-06 2x: 0.00E+00 2u: 0.00E+00 ir: 1.79E-07 iu: 0.00E+00 rsn:   0
  1 2r: 2.16E-11 2x: 6.47E+07 2u: 5.47E+01 ir: 2.43E-12 iu: 1.76E+00 rsn: rtol
 Step    122 Time=  5.50000E+00 Dt=  5.00000E-02 [y] snes_conv_reason:    3
  newton =   1 [     129] linear =   118 [     14980] cuts =  0 [   0]
  --> max chng: dpmx=   1.7595E+00 dtmpmx=   5.3544E-02

== TH FLOW =====================================================================
  0 2r: 2.04E-06 2x: 0.00E+00 2u: 0.00E+00 ir: 1.78E-07 iu: 0.00E+00 rsn:   0
  1 2r: 2.13E-11 2x: 6.47E+07 2u: 5.49E+01 ir: 2.37E-12 iu: 1.76E+00 rsn: rtol
 Step    123 Time=  5.55000E+00 Dt=  5.00000E-02 [y] snes_conv_reason:    3
  newton =   1 [     130] linear =   120 [     15100] cuts =  0 [   0]
  --> max chng: dpmx=   1.7592E+00 dtmpmx=   5.3244E-02

== TH FLOW =====================================================================
  0 2r: 2.04E-06 2x: 0.00E+00 2u: 0.00E+00 ir: 1.77E-07 iu: 0.00E+00 rsn:   0
  1 2r: 2.09E-11 2x: 6.47E+07 2u: 5.49E+01 ir: 2.30E-12 iu: 1.76E+00 rsn: rtol
 Step    124 Time=  5.60000E+00 Dt=  5.00000E-02 [y] snes_conv_reason:    3
  newton =   1 [     131] linear =   120 [     15220] cuts =  0 [   0]
  --> max chng: dpmx=   1.7586E+00 dtmpmx=   5.2910E-02

== TH FLOW =====================================================================
  0 2r: 2.03E-06 2x: 0.00E+00 2u: 0.00E+00 ir: 1.76E-07 iu: 0.00E+00 rsn:   0
  1 2r: 2.06E-11 2x: 6.47E+07 2u: 5.50E+01 ir: 2.25E-12 iu: 1.76E+00 rsn: rtol
 Step    125 Time=  5.65000E+00 Dt=  5.00000E-02 [y] snes_conv_reason:    3
  newton =   1 [     132] linear =   119 [     15339] cuts =  0 [   0]
  --> max chng: dpmx=   1.7578E+00 dtmpmx=   5.2543E-02

== TH FLOW =====================================================================
  0 2r: 2.02E-06 2x: 0.00E+00 2u: 0.00E+00 ir: 1.75E-07 iu: 0.00E+00 rsn:   0
  1 2r: 2.03E-11 2x: 6.47E+07 2u: 5.51E+01 ir: 2.24E-12 iu: 1.76E+00 rsn: rtol
 Step    126 Time=  5.70000E+00 Dt=  5.00000E-02 [y] snes_conv_reason:    3
  newton =   1 [     133] linear =   120 [     15459] cuts =  0 [   0]
  --> max chng: dpmx=   1.7575E+00 dtmpmx=   5.2145E-02

== TH FLOW =====================================================================
  0 2r: 2.01E-06 2x: 0.00E+00 2u: 0.00E+00 ir: 1.73E-07 iu: 0.00E+00 rsn:   0
  1 2r: 2.00E-11 2x: 6.47E+07 2u: 5.52E+01 ir: 2.22E-12 iu: 1.76E+00 rsn: rtol
 Step    127 Time=  5.75000E+00 Dt=  5.00000E-02 [y] snes_conv_reason:    3
  newton =   1 [     134] linear =   120 [     15579] cuts =  0 [   0]
  --> max chng: dpmx=   1.7570E+00 dtmpmx=   5.1732E-02

== TH FLOW =====================================================================
  0 2r: 2.01E-06 2x: 0.00E+00 2u: 0.00E+00 ir: 1.72E-07 iu: 0.00E+00 rsn:   0
  1 2r: 1.97E-11 2x: 6.47E+07 2u: 5.53E+01 ir: 2.20E-12 iu: 1.76E+00 rsn: rtol
 Step    128 Time=  5.80000E+00 Dt=  5.00000E-02 [y] snes_conv_reason:    3
  newton =   1 [     135] linear =   119 [     15698] cuts =  0 [   0]
  --> max chng: dpmx=   1.7565E+00 dtmpmx=   5.1531E-02

== TH FLOW =====================================================================
  0 2r: 2.00E-06 2x: 0.00E+00 2u: 0.00E+00 ir: 1.71E-07 iu: 0.00E+00 rsn:   0
  1 2r: 1.94E-11 2x: 6.47E+07 2u: 5.53E+01 ir: 2.17E-12 iu: 1.76E+00 rsn: rtol
 Step    129 Time=  5.85000E+00 Dt=  5.00000E-02 [y] snes_conv_reason:    3
  newton =   1 [     136] linear =   119 [     15817] cuts =  0 [   0]
  --> max chng: dpmx=   1.7559E+00 dtmpmx=   5.1297E-02

== TH FLOW =====================================================================
  0 2r: 1.99E-06 2x: 0.00E+00 2u: 0.00E+00 ir: 1.71E-07 iu: 0.00E+00 rsn:   0
  1 2r: 1.91E-11 2x: 6.47E+07 2u: 5.54E+01 ir: 2.15E-12 iu: 1.76E+00 rsn: rtol
 Step    130 Time=  5.90000E+00 Dt=  5.00000E-02 [y] snes_conv_reason:    3
  newton =   1 [     137] linear =   120 [     15937] cuts =  0 [   0]
  --> max chng: dpmx=   1.7554E+00 dtmpmx=   5.1033E-02

== TH FLOW =====================================================================
  0 2r: 1.99E-06 2x: 0.00E+00 2u: 0.00E+00 ir: 1.70E-07 iu: 0.00E+00 rsn:   0
  1 2r: 1.89E-11 2x: 6.47E+07 2u: 5.56E+01 ir: 2.11E-12 iu: 1.76E+00 rsn: rtol
 Step    131 Time=  5.95000E+00 Dt=  5.00000E-02 [y] snes_conv_reason:    3
  newton =   1 [     138] linear =   116 [     16053] cuts =  0 [   0]
  --> max chng: dpmx=   1.7552E+00 dtmpmx=   5.0738E-02

== TH FLOW =====================================================================
  0 2r: 1.98E-06 2x: 0.00E+00 2u: 0.00E+00 ir: 1.69E-07 iu: 0.00E+00 rsn:   0
  1 2r: 1.86E-11 2x: 6.47E+07 2u: 5.56E+01 ir: 2.08E-12 iu: 1.75E+00 rsn: rtol
 Step    132 Time=  6.00000E+00 Dt=  5.00000E-02 [y] snes_conv_reason:    3
  newton =   1 [     139] linear =   121 [     16174] cuts =  0 [   0]
  --> max chng: dpmx=   1.7548E+00 dtmpmx=   5.0414E-02

== TH FLOW =====================================================================
  0 2r: 1.98E-06 2x: 0.00E+00 2u: 0.00E+00 ir: 1.68E-07 iu: 0.00E+00 rsn:   0
  1 2r: 1.83E-11 2x: 6.47E+07 2u: 5.57E+01 ir: 2.04E-12 iu: 1.75E+00 rsn: rtol
 Step    133 Time=  6.05000E+00 Dt=  5.00000E-02 [y] snes_conv_reason:    3
  newton =   1 [     140] linear =   121 [     16295] cuts =  0 [   0]
  --> max chng: dpmx=   1.7541E+00 dtmpmx=   5.0171E-02

== TH FLOW =====================================================================
  0 2r: 1.97E-06 2x: 0.00E+00 2u: 0.00E+00 ir: 1.67E-07 iu: 0.00E+00 rsn:   0
  1 2r: 1.81E-11 2x: 6.47E+07 2u: 5.58E+01 ir: 2.01E-12 iu: 1.75E+00 rsn: rtol
 Step    134 Time=  6.10000E+00 Dt=  5.00000E-02 [y] snes_conv_reason:    3
  newton =   1 [     141] linear =   117 [     16412] cuts =  0 [   0]
  --> max chng: dpmx=   1.7537E+00 dtmpmx=   4.9943E-02

== TH FLOW =====================================================================
  0 2r: 1.96E-06 2x: 0.00E+00 2u: 0.00E+00 ir: 1.66E-07 iu: 0.00E+00 rsn:   0
  1 2r: 1.78E-11 2x: 6.47E+07 2u: 5.58E+01 ir: 1.96E-12 iu: 1.75E+00 rsn: rtol
 Step    135 Time=  6.15000E+00 Dt=  5.00000E-02 [y] snes_conv_reason:    3
  newton =   1 [     142] linear =   120 [     16532] cuts =  0 [   0]
  --> max chng: dpmx=   1.7532E+00 dtmpmx=   4.9686E-02

== TH FLOW =====================================================================
  0 2r: 1.96E-06 2x: 0.00E+00 2u: 0.00E+00 ir: 1.65E-07 iu: 0.00E+00 rsn:   0
  1 2r: 1.76E-11 2x: 6.47E+07 2u: 5.60E+01 ir: 1.92E-12 iu: 1.75E+00 rsn: rtol
 Step    136 Time=  6.20000E+00 Dt=  5.00000E-02 [y] snes_conv_reason:    3
  newton =   1 [     143] linear =   121 [     16653] cuts =  0 [   0]
  --> max chng: dpmx=   1.7529E+00 dtmpmx=   4.9401E-02

== TH FLOW =====================================================================
  0 2r: 1.95E-06 2x: 0.00E+00 2u: 0.00E+00 ir: 1.64E-07 iu: 0.00E+00 rsn:   0
  1 2r: 1.74E-11 2x: 6.47E+07 2u: 5.60E+01 ir: 1.88E-12 iu: 1.75E+00 rsn: rtol
 Step    137 Time=  6.25000E+00 Dt=  5.00000E-02 [y] snes_conv_reason:    3
  newton =   1 [     144] linear =   120 [     16773] cuts =  0 [   0]
  --> max chng: dpmx=   1.7524E+00 dtmpmx=   4.9090E-02

== TH FLOW =====================================================================
  0 2r: 1.95E-06 2x: 0.00E+00 2u: 0.00E+00 ir: 1.63E-07 iu: 0.00E+00 rsn:   0
  1 2r: 1.71E-11 2x: 6.47E+07 2u: 5.61E+01 ir: 1.84E-12 iu: 1.75E+00 rsn: rtol
 Step    138 Time=  6.30000E+00 Dt=  5.00000E-02 [y] snes_conv_reason:    3
  newton =   1 [     145] linear =   123 [     16896] cuts =  0 [   0]
  --> max chng: dpmx=   1.7518E+00 dtmpmx=   4.8752E-02

== TH FLOW =====================================================================
  0 2r: 1.94E-06 2x: 0.00E+00 2u: 0.00E+00 ir: 1.62E-07 iu: 0.00E+00 rsn:   0
  1 2r: 1.69E-11 2x: 6.47E+07 2u: 5.62E+01 ir: 1.80E-12 iu: 1.75E+00 rsn: rtol
 Step    139 Time=  6.35000E+00 Dt=  5.00000E-02 [y] snes_conv_reason:    3
  newton =   1 [     146] linear =   119 [     17015] cuts =  0 [   0]
  --> max chng: dpmx=   1.7513E+00 dtmpmx=   4.8533E-02

== TH FLOW =====================================================================
  0 2r: 1.93E-06 2x: 0.00E+00 2u: 0.00E+00 ir: 1.61E-07 iu: 0.00E+00 rsn:   0
  1 2r: 1.67E-11 2x: 6.47E+07 2u: 5.62E+01 ir: 1.79E-12 iu: 1.75E+00 rsn: rtol
 Step    140 Time=  6.40000E+00 Dt=  5.00000E-02 [y] snes_conv_reason:    3
  newton =   1 [     147] linear =   122 [     17137] cuts =  0 [   0]
  --> max chng: dpmx=   1.7509E+00 dtmpmx=   4.8364E-02

== TH FLOW =====================================================================
  0 2r: 1.93E-06 2x: 0.00E+00 2u: 0.00E+00 ir: 1.61E-07 iu: 0.00E+00 rsn:   0
  1 2r: 1.65E-11 2x: 6.47E+07 2u: 5.63E+01 ir: 1.77E-12 iu: 1.75E+00 rsn: rtol
 Step    141 Time=  6.45000E+00 Dt=  5.00000E-02 [y] snes_conv_reason:    3
  newton =   1 [     148] linear =   122 [     17259] cuts =  0 [   0]
  --> max chng: dpmx=   1.7511E+00 dtmpmx=   4.8167E-02

== TH FLOW =====================================================================
  0 2r: 1.92E-06 2x: 0.00E+00 2u: 0.00E+00 ir: 1.60E-07 iu: 0.00E+00 rsn:   0
  1 2r: 1.63E-11 2x: 6.47E+07 2u: 5.64E+01 ir: 1.76E-12 iu: 1.75E+00 rsn: rtol
 Step    142 Time=  6.50000E+00 Dt=  5.00000E-02 [y] snes_conv_reason:    3
  newton =   1 [     149] linear =   125 [     17384] cuts =  0 [   0]
  --> max chng: dpmx=   1.7508E+00 dtmpmx=   4.7943E-02

== TH FLOW =====================================================================
  0 2r: 1.92E-06 2x: 0.00E+00 2u: 0.00E+00 ir: 1.59E-07 iu: 0.00E+00 rsn:   0
  1 2r: 1.61E-11 2x: 6.47E+07 2u: 5.65E+01 ir: 1.74E-12 iu: 1.75E+00 rsn: rtol
 Step    143 Time=  6.55000E+00 Dt=  5.00000E-02 [y] snes_conv_reason:    3
  newton =   1 [     150] linear =   122 [     17506] cuts =  0 [   0]
  --> max chng: dpmx=   1.7510E+00 dtmpmx=   4.7695E-02

== TH FLOW =====================================================================
  0 2r: 1.91E-06 2x: 0.00E+00 2u: 0.00E+00 ir: 1.59E-07 iu: 0.00E+00 rsn:   0
  1 2r: 1.59E-11 2x: 6.47E+07 2u: 5.64E+01 ir: 1.72E-12 iu: 1.75E+00 rsn: rtol
 Step    144 Time=  6.60000E+00 Dt=  5.00000E-02 [y] snes_conv_reason:    3
  newton =   1 [     151] linear =   122 [     17628] cuts =  0 [   0]
  --> max chng: dpmx=   1.7501E+00 dtmpmx=   4.7422E-02

== TH FLOW =====================================================================
  0 2r: 1.91E-06 2x: 0.00E+00 2u: 0.00E+00 ir: 1.58E-07 iu: 0.00E+00 rsn:   0
  1 2r: 1.57E-11 2x: 6.47E+07 2u: 5.66E+01 ir: 1.70E-12 iu: 1.75E+00 rsn: rtol
 Step    145 Time=  6.65000E+00 Dt=  5.00000E-02 [y] snes_conv_reason:    3
  newton =   1 [     152] linear =   122 [     17750] cuts =  0 [   0]
  --> max chng: dpmx=   1.7504E+00 dtmpmx=   4.7139E-02

== TH FLOW =====================================================================
  0 2r: 1.90E-06 2x: 0.00E+00 2u: 0.00E+00 ir: 1.57E-07 iu: 0.00E+00 rsn:   0
  1 2r: 1.55E-11 2x: 6.47E+07 2u: 5.66E+01 ir: 1.68E-12 iu: 1.75E+00 rsn: rtol
 Step    146 Time=  6.70000E+00 Dt=  5.00000E-02 [y] snes_conv_reason:    3
  newton =   1 [     153] linear =   122 [     17872] cuts =  0 [   0]
  --> max chng: dpmx=   1.7502E+00 dtmpmx=   4.6943E-02

== TH FLOW =====================================================================
  0 2r: 1.90E-06 2x: 0.00E+00 2u: 0.00E+00 ir: 1.56E-07 iu: 0.00E+00 rsn:   0
  1 2r: 1.53E-11 2x: 6.47E+07 2u: 5.67E+01 ir: 1.65E-12 iu: 1.75E+00 rsn: rtol
 Step    147 Time=  6.75000E+00 Dt=  5.00000E-02 [y] snes_conv_reason:    3
  newton =   1 [     154] linear =   123 [     17995] cuts =  0 [   0]
  --> max chng: dpmx=   1.7498E+00 dtmpmx=   4.6723E-02

== TH FLOW =====================================================================
  0 2r: 1.89E-06 2x: 0.00E+00 2u: 0.00E+00 ir: 1.55E-07 iu: 0.00E+00 rsn:   0
  1 2r: 1.51E-11 2x: 6.47E+07 2u: 5.67E+01 ir: 1.62E-12 iu: 1.75E+00 rsn: rtol
 Step    148 Time=  6.80000E+00 Dt=  5.00000E-02 [y] snes_conv_reason:    3
  newton =   1 [     155] linear =   119 [     18114] cuts =  0 [   0]
  --> max chng: dpmx=   1.7491E+00 dtmpmx=   4.6479E-02

== TH FLOW =====================================================================
  0 2r: 1.89E-06 2x: 0.00E+00 2u: 0.00E+00 ir: 1.55E-07 iu: 0.00E+00 rsn:   0
  1 2r: 1.49E-11 2x: 6.47E+07 2u: 5.68E+01 ir: 1.60E-12 iu: 1.75E+00 rsn: rtol
 Step    149 Time=  6.85000E+00 Dt=  5.00000E-02 [y] snes_conv_reason:    3
  newton =   1 [     156] linear =   122 [     18236] cuts =  0 [   0]
  --> max chng: dpmx=   1.7491E+00 dtmpmx=   4.6213E-02

== TH FLOW =====================================================================
  0 2r: 1.88E-06 2x: 0.00E+00 2u: 0.00E+00 ir: 1.54E-07 iu: 0.00E+00 rsn:   0
  1 2r: 1.48E-11 2x: 6.47E+07 2u: 5.68E+01 ir: 1.57E-12 iu: 1.75E+00 rsn: rtol
 Step    150 Time=  6.90000E+00 Dt=  5.00000E-02 [y] snes_conv_reason:    3
  newton =   1 [     157] linear =   120 [     18356] cuts =  0 [   0]
  --> max chng: dpmx=   1.7482E+00 dtmpmx=   4.5962E-02

== TH FLOW =====================================================================
  0 2r: 1.88E-06 2x: 0.00E+00 2u: 0.00E+00 ir: 1.53E-07 iu: 0.00E+00 rsn:   0
  1 2r: 1.46E-11 2x: 6.47E+07 2u: 5.69E+01 ir: 1.54E-12 iu: 1.75E+00 rsn: rtol
 Step    151 Time=  6.95000E+00 Dt=  5.00000E-02 [y] snes_conv_reason:    3
  newton =   1 [     158] linear =   120 [     18476] cuts =  0 [   0]
  --> max chng: dpmx=   1.7480E+00 dtmpmx=   4.5834E-02

== TH FLOW =====================================================================
  0 2r: 1.87E-06 2x: 0.00E+00 2u: 0.00E+00 ir: 1.52E-07 iu: 0.00E+00 rsn:   0
  1 2r: 1.44E-11 2x: 6.47E+07 2u: 5.69E+01 ir: 1.51E-12 iu: 1.75E+00 rsn: rtol
 Step    152 Time=  7.00000E+00 Dt=  5.00000E-02 [y] snes_conv_reason:    3
  newton =   1 [     159] linear =   123 [     18599] cuts =  0 [   0]
  --> max chng: dpmx=   1.7474E+00 dtmpmx=   4.5691E-02

== TH FLOW =====================================================================
  0 2r: 1.87E-06 2x: 0.00E+00 2u: 0.00E+00 ir: 1.52E-07 iu: 0.00E+00 rsn:   0
  1 2r: 1.43E-11 2x: 6.47E+07 2u: 5.69E+01 ir: 1.47E-12 iu: 1.75E+00 rsn: rtol
 Step    153 Time=  7.05000E+00 Dt=  5.00000E-02 [y] snes_conv_reason:    3
  newton =   1 [     160] linear =   120 [     18719] cuts =  0 [   0]
  --> max chng: dpmx=   1.7467E+00 dtmpmx=   4.5524E-02

== TH FLOW =====================================================================
  0 2r: 1.86E-06 2x: 0.00E+00 2u: 0.00E+00 ir: 1.51E-07 iu: 0.00E+00 rsn:   0
  1 2r: 1.41E-11 2x: 6.47E+07 2u: 5.69E+01 ir: 1.47E-12 iu: 1.75E+00 rsn: rtol
 Step    154 Time=  7.10000E+00 Dt=  5.00000E-02 [y] snes_conv_reason:    3
  newton =   1 [     161] linear =   126 [     18845] cuts =  0 [   0]
  --> max chng: dpmx=   1.7457E+00 dtmpmx=   4.5335E-02

== TH FLOW =====================================================================
  0 2r: 1.86E-06 2x: 0.00E+00 2u: 0.00E+00 ir: 1.51E-07 iu: 0.00E+00 rsn:   0
  1 2r: 1.39E-11 2x: 6.47E+07 2u: 5.70E+01 ir: 1.46E-12 iu: 1.75E+00 rsn: rtol
 Step    155 Time=  7.15000E+00 Dt=  5.00000E-02 [y] snes_conv_reason:    3
  newton =   1 [     162] linear =   124 [     18969] cuts =  0 [   0]
  --> max chng: dpmx=   1.7451E+00 dtmpmx=   4.5125E-02

== TH FLOW =====================================================================
  0 2r: 1.85E-06 2x: 0.00E+00 2u: 0.00E+00 ir: 1.50E-07 iu: 0.00E+00 rsn:   0
  1 2r: 1.38E-11 2x: 6.47E+07 2u: 5.70E+01 ir: 1.45E-12 iu: 1.74E+00 rsn: rtol
 Step    156 Time=  7.20000E+00 Dt=  5.00000E-02 [y] snes_conv_reason:    3
  newton =   1 [     163] linear =   124 [     19093] cuts =  0 [   0]
  --> max chng: dpmx=   1.7442E+00 dtmpmx=   4.4893E-02

== TH FLOW =====================================================================
  0 2r: 1.85E-06 2x: 0.00E+00 2u: 0.00E+00 ir: 1.49E-07 iu: 0.00E+00 rsn:   0
  1 2r: 1.36E-11 2x: 6.47E+07 2u: 5.70E+01 ir: 1.43E-12 iu: 1.74E+00 rsn: rtol
 Step    157 Time=  7.25000E+00 Dt=  5.00000E-02 [y] snes_conv_reason:    3
  newton =   1 [     164] linear =   124 [     19217] cuts =  0 [   0]
  --> max chng: dpmx=   1.7433E+00 dtmpmx=   4.4641E-02

== TH FLOW =====================================================================
  0 2r: 1.84E-06 2x: 0.00E+00 2u: 0.00E+00 ir: 1.48E-07 iu: 0.00E+00 rsn:   0
  1 2r: 1.35E-11 2x: 6.47E+07 2u: 5.71E+01 ir: 1.42E-12 iu: 1.74E+00 rsn: rtol
 Step    158 Time=  7.30000E+00 Dt=  5.00000E-02 [y] snes_conv_reason:    3
  newton =   1 [     165] linear =   125 [     19342] cuts =  0 [   0]
  --> max chng: dpmx=   1.7424E+00 dtmpmx=   4.4400E-02

== TH FLOW =====================================================================
  0 2r: 1.84E-06 2x: 0.00E+00 2u: 0.00E+00 ir: 1.48E-07 iu: 0.00E+00 rsn:   0
  1 2r: 1.34E-11 2x: 6.47E+07 2u: 5.71E+01 ir: 1.40E-12 iu: 1.74E+00 rsn: rtol
 Step    159 Time=  7.35000E+00 Dt=  5.00000E-02 [y] snes_conv_reason:    3
  newton =   1 [     166] linear =   123 [     19465] cuts =  0 [   0]
  --> max chng: dpmx=   1.7413E+00 dtmpmx=   4.4211E-02

== TH FLOW =====================================================================
  0 2r: 1.83E-06 2x: 0.00E+00 2u: 0.00E+00 ir: 1.47E-07 iu: 0.00E+00 rsn:   0
  1 2r: 1.32E-11 2x: 6.47E+07 2u: 5.71E+01 ir: 1.38E-12 iu: 1.74E+00 rsn: rtol
 Step    160 Time=  7.40000E+00 Dt=  5.00000E-02 [y] snes_conv_reason:    3
  newton =   1 [     167] linear =   122 [     19587] cuts =  0 [   0]
  --> max chng: dpmx=   1.7403E+00 dtmpmx=   4.4002E-02

== TH FLOW =====================================================================
  0 2r: 1.83E-06 2x: 0.00E+00 2u: 0.00E+00 ir: 1.46E-07 iu: 0.00E+00 rsn:   0
  1 2r: 1.31E-11 2x: 6.47E+07 2u: 5.71E+01 ir: 1.37E-12 iu: 1.74E+00 rsn: rtol
 Step    161 Time=  7.45000E+00 Dt=  5.00000E-02 [y] snes_conv_reason:    3
  newton =   1 [     168] linear =   122 [     19709] cuts =  0 [   0]
  --> max chng: dpmx=   1.7392E+00 dtmpmx=   4.3773E-02

== TH FLOW =====================================================================
  0 2r: 1.82E-06 2x: 0.00E+00 2u: 0.00E+00 ir: 1.46E-07 iu: 0.00E+00 rsn:   0
  1 2r: 1.29E-11 2x: 6.47E+07 2u: 5.71E+01 ir: 1.35E-12 iu: 1.74E+00 rsn: rtol
 Step    162 Time=  7.50000E+00 Dt=  5.00000E-02 [y] snes_conv_reason:    3
  newton =   1 [     169] linear =   117 [     19826] cuts =  0 [   0]
  --> max chng: dpmx=   1.7380E+00 dtmpmx=   4.3660E-02

== TH FLOW =====================================================================
  0 2r: 1.82E-06 2x: 0.00E+00 2u: 0.00E+00 ir: 1.45E-07 iu: 0.00E+00 rsn:   0
  1 2r: 1.28E-11 2x: 6.47E+07 2u: 5.72E+01 ir: 1.33E-12 iu: 1.74E+00 rsn: rtol
 Step    163 Time=  7.55000E+00 Dt=  5.00000E-02 [y] snes_conv_reason:    3
  newton =   1 [     170] linear =   124 [     19950] cuts =  0 [   0]
  --> max chng: dpmx=   1.7375E+00 dtmpmx=   4.3529E-02

== TH FLOW =====================================================================
  0 2r: 1.81E-06 2x: 0.00E+00 2u: 0.00E+00 ir: 1.45E-07 iu: 0.00E+00 rsn:   0
  1 2r: 1.27E-11 2x: 6.47E+07 2u: 5.71E+01 ir: 1.30E-12 iu: 1.74E+00 rsn: rtol
 Step    164 Time=  7.60000E+00 Dt=  5.00000E-02 [y] snes_conv_reason:    3
  newton =   1 [     171] linear =   116 [     20066] cuts =  0 [   0]
  --> max chng: dpmx=   1.7360E+00 dtmpmx=   4.3400E-02

== TH FLOW =====================================================================
[...]
  1 2r: 7.26E-13 2x: 6.47E+07 2u: 1.21E+01 ir: 6.98E-14 iu: 3.03E-01 rsn: itol_upd
 Step    518 Time=  2.53000E+01 Dt=  5.00000E-02 [y] snes_conv_reason:   11
  newton =   1 [     525] linear =   123 [     63070] cuts =  0 [   0]
  --> max chng: dpmx=   3.0256E-01 dtmpmx=   1.4303E-02

== TH FLOW =====================================================================
  0 2r: 6.57E-07 2x: 0.00E+00 2u: 0.00E+00 ir: 4.75E-08 iu: 0.00E+00 rsn:   0
  1 2r: 7.24E-13 2x: 6.47E+07 2u: 1.21E+01 ir: 6.97E-14 iu: 3.03E-01 rsn: itol_upd
 Step    519 Time=  2.53500E+01 Dt=  5.00000E-02 [y] snes_conv_reason:   11
  newton =   1 [     526] linear =   123 [     63193] cuts =  0 [   0]
  --> max chng: dpmx=   3.0326E-01 dtmpmx=   1.4294E-02

== TH FLOW =====================================================================
  0 2r: 6.56E-07 2x: 0.00E+00 2u: 0.00E+00 ir: 4.75E-08 iu: 0.00E+00 rsn:   0
  1 2r: 7.53E-13 2x: 6.47E+07 2u: 1.21E+01 ir: 1.48E-13 iu: 3.04E-01 rsn: itol_upd
 Step    520 Time=  2.54000E+01 Dt=  5.00000E-02 [y] snes_conv_reason:   11
  newton =   1 [     527] linear =   123 [     63316] cuts =  0 [   0]
  --> max chng: dpmx=   3.0394E-01 dtmpmx=   1.4285E-02

== TH FLOW =====================================================================
  0 2r: 6.55E-07 2x: 0.00E+00 2u: 0.00E+00 ir: 4.75E-08 iu: 0.00E+00 rsn:   0
  1 2r: 2.11E-12 2x: 6.47E+07 2u: 1.21E+01 ir: 1.07E-12 iu: 3.05E-01 rsn: itol_upd
 Step    521 Time=  2.54500E+01 Dt=  5.00000E-02 [y] snes_conv_reason:   11
  newton =   1 [     528] linear =   123 [     63439] cuts =  0 [   0]
  --> max chng: dpmx=   3.0462E-01 dtmpmx=   1.4275E-02

== TH FLOW =====================================================================
  0 2r: 6.55E-07 2x: 0.00E+00 2u: 0.00E+00 ir: 4.75E-08 iu: 0.00E+00 rsn:   0
  1 2r: 3.75E-12 2x: 6.47E+07 2u: 1.21E+01 ir: 1.93E-12 iu: 3.05E-01 rsn: itol_upd
 Step    522 Time=  2.55000E+01 Dt=  5.00000E-02 [y] snes_conv_reason:   11
  newton =   1 [     529] linear =   123 [     63562] cuts =  0 [   0]
  --> max chng: dpmx=   3.0529E-01 dtmpmx=   1.4264E-02

== TH FLOW =====================================================================
  0 2r: 6.54E-07 2x: 0.00E+00 2u: 0.00E+00 ir: 4.74E-08 iu: 0.00E+00 rsn:   0
  1 2r: 4.00E-12 2x: 6.47E+07 2u: 1.22E+01 ir: 2.74E-12 iu: 3.06E-01 rsn: itol_upd
 Step    523 Time=  2.55500E+01 Dt=  5.00000E-02 [y] snes_conv_reason:   11
  newton =   1 [     530] linear =   123 [     63685] cuts =  0 [   0]
  --> max chng: dpmx=   3.0594E-01 dtmpmx=   1.4252E-02

== TH FLOW =====================================================================
  0 2r: 6.54E-07 2x: 0.00E+00 2u: 0.00E+00 ir: 4.74E-08 iu: 0.00E+00 rsn:   0
  1 2r: 1.49E-12 2x: 6.47E+07 2u: 1.22E+01 ir: 9.33E-13 iu: 3.07E-01 rsn: itol_upd
 Step    524 Time=  2.56000E+01 Dt=  5.00000E-02 [y] snes_conv_reason:   11
  newton =   1 [     531] linear =   123 [     63808] cuts =  0 [   0]
  --> max chng: dpmx=   3.0659E-01 dtmpmx=   1.4240E-02

== TH FLOW =====================================================================
  0 2r: 6.53E-07 2x: 0.00E+00 2u: 0.00E+00 ir: 4.73E-08 iu: 0.00E+00 rsn:   0
  1 2r: 7.13E-13 2x: 6.47E+07 2u: 1.22E+01 ir: 6.86E-14 iu: 3.07E-01 rsn: itol_upd
 Step    525 Time=  2.56500E+01 Dt=  5.00000E-02 [y] snes_conv_reason:   11
  newton =   1 [     532] linear =   123 [     63931] cuts =  0 [   0]
  --> max chng: dpmx=   3.0723E-01 dtmpmx=   1.4227E-02

== TH FLOW =====================================================================
  0 2r: 6.52E-07 2x: 0.00E+00 2u: 0.00E+00 ir: 4.73E-08 iu: 0.00E+00 rsn:   0
  1 2r: 7.14E-13 2x: 6.47E+07 2u: 1.22E+01 ir: 6.85E-14 iu: 3.08E-01 rsn: itol_upd
 Step    526 Time=  2.57000E+01 Dt=  5.00000E-02 [y] snes_conv_reason:   11
  newton =   1 [     533] linear =   123 [     64054] cuts =  0 [   0]
  --> max chng: dpmx=   3.0786E-01 dtmpmx=   1.4213E-02

== TH FLOW =====================================================================
  0 2r: 6.52E-07 2x: 0.00E+00 2u: 0.00E+00 ir: 4.72E-08 iu: 0.00E+00 rsn:   0
  1 2r: 7.12E-13 2x: 6.47E+07 2u: 1.22E+01 ir: 6.85E-14 iu: 3.08E-01 rsn: itol_upd
 Step    527 Time=  2.57500E+01 Dt=  5.00000E-02 [y] snes_conv_reason:   11
  newton =   1 [     534] linear =   108 [     64162] cuts =  0 [   0]
  --> max chng: dpmx=   3.0840E-01 dtmpmx=   1.4198E-02

== TH FLOW =====================================================================
  0 2r: 6.51E-07 2x: 0.00E+00 2u: 0.00E+00 ir: 4.72E-08 iu: 0.00E+00 rsn:   0
  1 2r: 7.07E-13 2x: 6.47E+07 2u: 1.23E+01 ir: 6.81E-14 iu: 3.09E-01 rsn: itol_upd
 Step    528 Time=  2.58000E+01 Dt=  5.00000E-02 [y] snes_conv_reason:   11
  newton =   1 [     535] linear =   123 [     64285] cuts =  0 [   0]
  --> max chng: dpmx=   3.0927E-01 dtmpmx=   1.4183E-02

== TH FLOW =====================================================================
  0 2r: 6.51E-07 2x: 0.00E+00 2u: 0.00E+00 ir: 4.71E-08 iu: 0.00E+00 rsn:   0
  1 2r: 7.04E-13 2x: 6.47E+07 2u: 1.23E+01 ir: 6.76E-14 iu: 3.10E-01 rsn: itol_upd
 Step    529 Time=  2.58500E+01 Dt=  5.00000E-02 [y] snes_conv_reason:   11
  newton =   1 [     536] linear =   123 [     64408] cuts =  0 [   0]
  --> max chng: dpmx=   3.0979E-01 dtmpmx=   1.4167E-02

== TH FLOW =====================================================================
  0 2r: 6.50E-07 2x: 0.00E+00 2u: 0.00E+00 ir: 4.71E-08 iu: 0.00E+00 rsn:   0
  1 2r: 7.04E-13 2x: 6.47E+07 2u: 1.23E+01 ir: 6.77E-14 iu: 3.10E-01 rsn: itol_upd
 Step    530 Time=  2.59000E+01 Dt=  5.00000E-02 [y] snes_conv_reason:   11
  newton =   1 [     537] linear =   113 [     64521] cuts =  0 [   0]
  --> max chng: dpmx=   3.1043E-01 dtmpmx=   1.4150E-02

== TH FLOW =====================================================================
  0 2r: 6.50E-07 2x: 0.00E+00 2u: 0.00E+00 ir: 4.70E-08 iu: 0.00E+00 rsn:   0
  1 2r: 7.11E-13 2x: 6.47E+07 2u: 1.23E+01 ir: 8.06E-14 iu: 3.11E-01 rsn: itol_upd
 Step    531 Time=  2.59500E+01 Dt=  5.00000E-02 [y] snes_conv_reason:   11
  newton =   1 [     538] linear =   119 [     64640] cuts =  0 [   0]
  --> max chng: dpmx=   3.1114E-01 dtmpmx=   1.4133E-02

== TH FLOW =====================================================================
  0 2r: 6.49E-07 2x: 0.00E+00 2u: 0.00E+00 ir: 4.70E-08 iu: 0.00E+00 rsn:   0
  1 2r: 9.96E-13 2x: 6.47E+07 2u: 1.23E+01 ir: 5.24E-13 iu: 3.12E-01 rsn: itol_upd
 Step    532 Time=  2.60000E+01 Dt=  5.00000E-02 [y] snes_conv_reason:   11
  newton =   1 [     539] linear =   118 [     64758] cuts =  0 [   0]
  --> max chng: dpmx=   3.1162E-01 dtmpmx=   1.4114E-02

== TH FLOW =====================================================================
  0 2r: 6.48E-07 2x: 0.00E+00 2u: 0.00E+00 ir: 4.69E-08 iu: 0.00E+00 rsn:   0
  1 2r: 1.03E-12 2x: 6.47E+07 2u: 1.24E+01 ir: 4.33E-13 iu: 3.12E-01 rsn: itol_upd
 Step    533 Time=  2.60500E+01 Dt=  5.00000E-02 [y] snes_conv_reason:   11
  newton =   1 [     540] linear =   115 [     64873] cuts =  0 [   0]
  --> max chng: dpmx=   3.1230E-01 dtmpmx=   1.4096E-02

== TH FLOW =====================================================================
  0 2r: 6.48E-07 2x: 0.00E+00 2u: 0.00E+00 ir: 4.69E-08 iu: 0.00E+00 rsn:   0
  1 2r: 6.95E-13 2x: 6.47E+07 2u: 1.24E+01 ir: 6.64E-14 iu: 3.13E-01 rsn: itol_upd
 Step    534 Time=  2.61000E+01 Dt=  5.00000E-02 [y] snes_conv_reason:   11
  newton =   1 [     541] linear =   115 [     64988] cuts =  0 [   0]
  --> max chng: dpmx=   3.1286E-01 dtmpmx=   1.4076E-02

== TH FLOW =====================================================================
  0 2r: 6.47E-07 2x: 0.00E+00 2u: 0.00E+00 ir: 4.68E-08 iu: 0.00E+00 rsn:   0
  1 2r: 2.60E-12 2x: 6.47E+07 2u: 1.24E+01 ir: 1.75E-12 iu: 3.13E-01 rsn: itol_upd
 Step    535 Time=  2.61500E+01 Dt=  5.00000E-02 [y] snes_conv_reason:   11
  newton =   1 [     542] linear =   115 [     65103] cuts =  0 [   0]
  --> max chng: dpmx=   3.1344E-01 dtmpmx=   1.4056E-02

== TH FLOW =====================================================================
  0 2r: 6.47E-07 2x: 0.00E+00 2u: 0.00E+00 ir: 4.67E-08 iu: 0.00E+00 rsn:   0
  1 2r: 8.71E-13 2x: 6.47E+07 2u: 1.24E+01 ir: 3.93E-13 iu: 3.14E-01 rsn: itol_upd
 Step    536 Time=  2.62000E+01 Dt=  5.00000E-02 [y] snes_conv_reason:   11
  newton =   1 [     543] linear =   116 [     65219] cuts =  0 [   0]
  --> max chng: dpmx=   3.1403E-01 dtmpmx=   1.4035E-02

== TH FLOW =====================================================================
  0 2r: 6.46E-07 2x: 0.00E+00 2u: 0.00E+00 ir: 4.67E-08 iu: 0.00E+00 rsn:   0
  1 2r: 6.97E-13 2x: 6.47E+07 2u: 1.24E+01 ir: 7.00E-14 iu: 3.15E-01 rsn: itol_upd
 Step    537 Time=  2.62500E+01 Dt=  5.00000E-02 [y] snes_conv_reason:   11
  newton =   1 [     544] linear =   119 [     65338] cuts =  0 [   0]
  --> max chng: dpmx=   3.1467E-01 dtmpmx=   1.4014E-02

== TH FLOW =====================================================================
  0 2r: 6.46E-07 2x: 0.00E+00 2u: 0.00E+00 ir: 4.66E-08 iu: 0.00E+00 rsn:   0
  1 2r: 2.76E-12 2x: 6.47E+07 2u: 1.25E+01 ir: 1.87E-12 iu: 3.15E-01 rsn: itol_upd
 Step    538 Time=  2.63000E+01 Dt=  5.00000E-02 [y] snes_conv_reason:   11
  newton =   1 [     545] linear =   117 [     65455] cuts =  0 [   0]
  --> max chng: dpmx=   3.1522E-01 dtmpmx=   1.3991E-02

== TH FLOW =====================================================================
  0 2r: 6.45E-07 2x: 0.00E+00 2u: 0.00E+00 ir: 4.65E-08 iu: 0.00E+00 rsn:   0
  1 2r: 7.93E-13 2x: 6.47E+07 2u: 1.25E+01 ir: 2.73E-13 iu: 3.16E-01 rsn: itol_upd
 Step    539 Time=  2.63500E+01 Dt=  5.00000E-02 [y] snes_conv_reason:   11
  newton =   1 [     546] linear =   117 [     65572] cuts =  0 [   0]
  --> max chng: dpmx=   3.1578E-01 dtmpmx=   1.3969E-02

== TH FLOW =====================================================================
  0 2r: 6.45E-07 2x: 0.00E+00 2u: 0.00E+00 ir: 4.64E-08 iu: 0.00E+00 rsn:   0
  1 2r: 6.90E-13 2x: 6.47E+07 2u: 1.25E+01 ir: 6.54E-14 iu: 3.16E-01 rsn: itol_upd
 Step    540 Time=  2.64000E+01 Dt=  5.00000E-02 [y] snes_conv_reason:   11
  newton =   1 [     547] linear =   116 [     65688] cuts =  0 [   0]
  --> max chng: dpmx=   3.1635E-01 dtmpmx=   1.3945E-02

== TH FLOW =====================================================================
  0 2r: 6.44E-07 2x: 0.00E+00 2u: 0.00E+00 ir: 4.64E-08 iu: 0.00E+00 rsn:   0
  1 2r: 6.86E-13 2x: 6.47E+07 2u: 1.25E+01 ir: 6.51E-14 iu: 3.17E-01 rsn: itol_upd
 Step    541 Time=  2.64500E+01 Dt=  5.00000E-02 [y] snes_conv_reason:   11
  newton =   1 [     548] linear =   120 [     65808] cuts =  0 [   0]
  --> max chng: dpmx=   3.1678E-01 dtmpmx=   1.3921E-02

== TH FLOW =====================================================================
  0 2r: 6.44E-07 2x: 0.00E+00 2u: 0.00E+00 ir: 4.63E-08 iu: 0.00E+00 rsn:   0
  1 2r: 2.86E-12 2x: 6.47E+07 2u: 1.25E+01 ir: 1.94E-12 iu: 3.17E-01 rsn: itol_upd
 Step    542 Time=  2.65000E+01 Dt=  5.00000E-02 [y] snes_conv_reason:   11
  newton =   1 [     549] linear =   121 [     65929] cuts =  0 [   0]
  --> max chng: dpmx=   3.1741E-01 dtmpmx=   1.3897E-02

== TH FLOW =====================================================================
  0 2r: 6.43E-07 2x: 0.00E+00 2u: 0.00E+00 ir: 4.62E-08 iu: 0.00E+00 rsn:   0
  1 2r: 6.82E-13 2x: 6.47E+07 2u: 1.25E+01 ir: 6.45E-14 iu: 3.18E-01 rsn: itol_upd
 Step    543 Time=  2.65500E+01 Dt=  5.00000E-02 [y] snes_conv_reason:   11
  newton =   1 [     550] linear =   119 [     66048] cuts =  0 [   0]
  --> max chng: dpmx=   3.1795E-01 dtmpmx=   1.3880E-02

== TH FLOW =====================================================================
  0 2r: 6.42E-07 2x: 0.00E+00 2u: 0.00E+00 ir: 4.61E-08 iu: 0.00E+00 rsn:   0
  1 2r: 6.81E-13 2x: 6.47E+07 2u: 1.26E+01 ir: 6.89E-14 iu: 3.18E-01 rsn: itol_upd
 Step    544 Time=  2.66000E+01 Dt=  5.00000E-02 [y] snes_conv_reason:   11
  newton =   1 [     551] linear =   120 [     66168] cuts =  0 [   0]
  --> max chng: dpmx=   3.1836E-01 dtmpmx=   1.3872E-02

== TH FLOW =====================================================================
  0 2r: 6.42E-07 2x: 0.00E+00 2u: 0.00E+00 ir: 4.61E-08 iu: 0.00E+00 rsn:   0
  1 2r: 6.77E-13 2x: 6.47E+07 2u: 1.26E+01 ir: 6.41E-14 iu: 3.19E-01 rsn: itol_upd
 Step    545 Time=  2.66500E+01 Dt=  5.00000E-02 [y] snes_conv_reason:   11
  newton =   1 [     552] linear =   122 [     66290] cuts =  0 [   0]
  --> max chng: dpmx=   3.1908E-01 dtmpmx=   1.3864E-02

== TH FLOW =====================================================================
  0 2r: 6.41E-07 2x: 0.00E+00 2u: 0.00E+00 ir: 4.61E-08 iu: 0.00E+00 rsn:   0
  1 2r: 3.49E-12 2x: 6.47E+07 2u: 1.26E+01 ir: 2.38E-12 iu: 3.19E-01 rsn: itol_upd
 Step    546 Time=  2.67000E+01 Dt=  5.00000E-02 [y] snes_conv_reason:   11
  newton =   1 [     553] linear =   127 [     66417] cuts =  0 [   0]
  --> max chng: dpmx=   3.1939E-01 dtmpmx=   1.3855E-02

== TH FLOW =====================================================================
  0 2r: 6.41E-07 2x: 0.00E+00 2u: 0.00E+00 ir: 4.61E-08 iu: 0.00E+00 rsn:   0
  1 2r: 1.74E-12 2x: 6.47E+07 2u: 1.26E+01 ir: 1.14E-12 iu: 3.20E-01 rsn: itol_upd
 Step    547 Time=  2.67500E+01 Dt=  5.00000E-02 [y] snes_conv_reason:   11
  newton =   1 [     554] linear =   118 [     66535] cuts =  0 [   0]
  --> max chng: dpmx=   3.1987E-01 dtmpmx=   1.3845E-02

== TH FLOW =====================================================================
  0 2r: 6.40E-07 2x: 0.00E+00 2u: 0.00E+00 ir: 4.60E-08 iu: 0.00E+00 rsn:   0
  1 2r: 6.75E-13 2x: 6.47E+07 2u: 1.26E+01 ir: 6.39E-14 iu: 3.20E-01 rsn: itol_upd
 Step    548 Time=  2.68000E+01 Dt=  5.00000E-02 [y] snes_conv_reason:   11
  newton =   1 [     555] linear =   119 [     66654] cuts =  0 [   0]
  --> max chng: dpmx=   3.2044E-01 dtmpmx=   1.3834E-02

== TH FLOW =====================================================================
  0 2r: 6.40E-07 2x: 0.00E+00 2u: 0.00E+00 ir: 4.60E-08 iu: 0.00E+00 rsn:   0
  1 2r: 7.23E-13 2x: 6.47E+07 2u: 1.26E+01 ir: 2.17E-13 iu: 3.21E-01 rsn: itol_upd
 Step    549 Time=  2.68500E+01 Dt=  5.00000E-02 [y] snes_conv_reason:   11
  newton =   1 [     556] linear =   118 [     66772] cuts =  0 [   0]
  --> max chng: dpmx=   3.2100E-01 dtmpmx=   1.3823E-02

== TH FLOW =====================================================================
  0 2r: 6.39E-07 2x: 0.00E+00 2u: 0.00E+00 ir: 4.60E-08 iu: 0.00E+00 rsn:   0
  1 2r: 6.70E-13 2x: 6.47E+07 2u: 1.27E+01 ir: 6.35E-14 iu: 3.22E-01 rsn: itol_upd
 Step    550 Time=  2.69000E+01 Dt=  5.00000E-02 [y] snes_conv_reason:   11
  newton =   1 [     557] linear =   118 [     66890] cuts =  0 [   0]
  --> max chng: dpmx=   3.2153E-01 dtmpmx=   1.3811E-02

== TH FLOW =====================================================================
  0 2r: 6.39E-07 2x: 0.00E+00 2u: 0.00E+00 ir: 4.59E-08 iu: 0.00E+00 rsn:   0
  1 2r: 6.69E-13 2x: 6.47E+07 2u: 1.27E+01 ir: 6.33E-14 iu: 3.22E-01 rsn: itol_upd
 Step    551 Time=  2.69500E+01 Dt=  5.00000E-02 [y] snes_conv_reason:   11
  newton =   1 [     558] linear =   118 [     67008] cuts =  0 [   0]
  --> max chng: dpmx=   3.2206E-01 dtmpmx=   1.3799E-02

== TH FLOW =====================================================================
  0 2r: 6.38E-07 2x: 0.00E+00 2u: 0.00E+00 ir: 4.59E-08 iu: 0.00E+00 rsn:   0
  1 2r: 6.67E-13 2x: 6.47E+07 2u: 1.27E+01 ir: 6.31E-14 iu: 3.22E-01 rsn: itol_upd
 Step    552 Time=  2.70000E+01 Dt=  5.00000E-02 [y] snes_conv_reason:   11
  newton =   1 [     559] linear =   121 [     67129] cuts =  0 [   0]
  --> max chng: dpmx=   3.2248E-01 dtmpmx=   1.3785E-02

== TH FLOW =====================================================================
  0 2r: 6.38E-07 2x: 0.00E+00 2u: 0.00E+00 ir: 4.58E-08 iu: 0.00E+00 rsn:   0
  1 2r: 6.65E-13 2x: 6.47E+07 2u: 1.27E+01 ir: 6.29E-14 iu: 3.23E-01 rsn: itol_upd
 Step    553 Time=  2.70500E+01 Dt=  5.00000E-02 [y] snes_conv_reason:   11
  newton =   1 [     560] linear =   121 [     67250] cuts =  0 [   0]
  --> max chng: dpmx=   3.2302E-01 dtmpmx=   1.3771E-02

== TH FLOW =====================================================================
  0 2r: 6.38E-07 2x: 0.00E+00 2u: 0.00E+00 ir: 4.58E-08 iu: 0.00E+00 rsn:   0
  1 2r: 6.65E-13 2x: 6.47E+07 2u: 1.27E+01 ir: 6.32E-14 iu: 3.23E-01 rsn: itol_upd
 Step    554 Time=  2.71000E+01 Dt=  5.00000E-02 [y] snes_conv_reason:   11
  newton =   1 [     561] linear =   121 [     67371] cuts =  0 [   0]
  --> max chng: dpmx=   3.2335E-01 dtmpmx=   1.3757E-02

== TH FLOW =====================================================================
  0 2r: 6.37E-07 2x: 0.00E+00 2u: 0.00E+00 ir: 4.57E-08 iu: 0.00E+00 rsn:   0
  1 2r: 6.90E-13 2x: 6.47E+07 2u: 1.27E+01 ir: 7.41E-14 iu: 3.24E-01 rsn: itol_upd
 Step    555 Time=  2.71500E+01 Dt=  5.00000E-02 [y] snes_conv_reason:   11
  newton =   1 [     562] linear =   111 [     67482] cuts =  0 [   0]
  --> max chng: dpmx=   3.2398E-01 dtmpmx=   1.3742E-02

== TH FLOW =====================================================================
  0 2r: 6.37E-07 2x: 0.00E+00 2u: 0.00E+00 ir: 4.57E-08 iu: 0.00E+00 rsn:   0
  1 2r: 6.60E-13 2x: 6.47E+07 2u: 1.27E+01 ir: 6.28E-14 iu: 3.24E-01 rsn: itol_upd
 Step    556 Time=  2.72000E+01 Dt=  5.00000E-02 [y] snes_conv_reason:   11
  newton =   1 [     563] linear =   122 [     67604] cuts =  0 [   0]
  --> max chng: dpmx=   3.2436E-01 dtmpmx=   1.3726E-02

== TH FLOW =====================================================================
  0 2r: 6.36E-07 2x: 0.00E+00 2u: 0.00E+00 ir: 4.56E-08 iu: 0.00E+00 rsn:   0
  1 2r: 3.75E-12 2x: 6.47E+07 2u: 1.28E+01 ir: 2.56E-12 iu: 3.25E-01 rsn: itol_upd
 Step    557 Time=  2.72500E+01 Dt=  5.00000E-02 [y] snes_conv_reason:   11
  newton =   1 [     564] linear =   122 [     67726] cuts =  0 [   0]
  --> max chng: dpmx=   3.2488E-01 dtmpmx=   1.3709E-02

== TH FLOW =====================================================================
  0 2r: 6.36E-07 2x: 0.00E+00 2u: 0.00E+00 ir: 4.56E-08 iu: 0.00E+00 rsn:   0
  1 2r: 6.58E-13 2x: 6.47E+07 2u: 1.28E+01 ir: 6.20E-14 iu: 3.25E-01 rsn: itol_upd
 Step    558 Time=  2.73000E+01 Dt=  5.00000E-02 [y] snes_conv_reason:   11
  newton =   1 [     565] linear =   122 [     67848] cuts =  0 [   0]
  --> max chng: dpmx=   3.2532E-01 dtmpmx=   1.3692E-02

== TH FLOW =====================================================================
  0 2r: 6.35E-07 2x: 0.00E+00 2u: 0.00E+00 ir: 4.55E-08 iu: 0.00E+00 rsn:   0
  1 2r: 6.56E-13 2x: 6.47E+07 2u: 1.28E+01 ir: 6.18E-14 iu: 3.26E-01 rsn: itol_upd
 Step    559 Time=  2.73500E+01 Dt=  5.00000E-02 [y] snes_conv_reason:   11
  newton =   1 [     566] linear =   122 [     67970] cuts =  0 [   0]
  --> max chng: dpmx=   3.2577E-01 dtmpmx=   1.3674E-02

== TH FLOW =====================================================================
  0 2r: 6.35E-07 2x: 0.00E+00 2u: 0.00E+00 ir: 4.55E-08 iu: 0.00E+00 rsn:   0
  1 2r: 6.56E-13 2x: 6.47E+07 2u: 1.28E+01 ir: 6.16E-14 iu: 3.26E-01 rsn: itol_upd
 Step    560 Time=  2.74000E+01 Dt=  5.00000E-02 [y] snes_conv_reason:   11
  newton =   1 [     567] linear =   112 [     68082] cuts =  0 [   0]
  --> max chng: dpmx=   3.2607E-01 dtmpmx=   1.3656E-02

== TH FLOW =====================================================================
  0 2r: 6.34E-07 2x: 0.00E+00 2u: 0.00E+00 ir: 4.54E-08 iu: 0.00E+00 rsn:   0
  1 2r: 6.53E-13 2x: 6.47E+07 2u: 1.28E+01 ir: 8.52E-14 iu: 3.27E-01 rsn: itol_upd
 Step    561 Time=  2.74500E+01 Dt=  5.00000E-02 [y] snes_conv_reason:   11
  newton =   1 [     568] linear =   113 [     68195] cuts =  0 [   0]
  --> max chng: dpmx=   3.2669E-01 dtmpmx=   1.3637E-02

== TH FLOW =====================================================================
  0 2r: 6.34E-07 2x: 0.00E+00 2u: 0.00E+00 ir: 4.53E-08 iu: 0.00E+00 rsn:   0
  1 2r: 6.50E-13 2x: 6.47E+07 2u: 1.28E+01 ir: 6.31E-14 iu: 3.27E-01 rsn: itol_upd
 Step    562 Time=  2.75000E+01 Dt=  5.00000E-02 [y] snes_conv_reason:   11
  newton =   1 [     569] linear =   120 [     68315] cuts =  0 [   0]
  --> max chng: dpmx=   3.2693E-01 dtmpmx=   1.3617E-02

 Wall Clock Time:  1.6212E+02 [sec]   2.7020E+00 [min]   4.5033E-02 [hr]
