
===================
  PFLOTRAN v3.0.1
===================

 Extent of Gridded Domain
  X: 2.5000000000000000 - 97.500000000000000
  Y: 2.5000000000000000 - 1277.5000000000000
  Z: 2.5000000000000000 - 2.5000000000000000


=+=+=+=+=+=+=+=+=+=+=+=+=+=+=+=+=+=+=+=+=+=+=+=+=+=+=+=+=+=+=+=+=+=+=+=+=+=+=+=+

  Initial Condition

--------------------------------------------------------------------------------
          Flow Condition:   initial
                  Region:   all
--------------------------------------------------------------------------------

  Flow Condition: initial
    Synchronize time with update: no
    Time units: yr
    Length units: m
      Datum:
        Dataset: Unnamed Ascii Dataset
          Type: dataset_ascii_type
          Transient: no
          Array Rank:  3

    Sub Condition: pressure
      Type: hydrostatic
      Gradient:
        Dataset: Unnamed Ascii Dataset
          Type: dataset_ascii_type
          Transient: no
          Array Rank:  3
      Data:
        Dataset: Unnamed Ascii Dataset
          Type: dataset_ascii_type
          Transient: no
          Array Rank:  1

    Sub Condition: temperature
      Type: dirichlet
      Gradient:
      Data:
        Dataset: Unnamed Ascii Dataset
          Type: dataset_ascii_type
          Transient: no
          Array Rank:  1

--------------------------------------------------------------------------------

=+=+=+=+=+=+=+=+=+=+=+=+=+=+=+=+=+=+=+=+=+=+=+=+=+=+=+=+=+=+=+=+=+=+=+=+=+=+=+=+

  Boundary Condition

--------------------------------------------------------------------------------
          Flow Condition:   initial
                  Region:   north
--------------------------------------------------------------------------------

  Flow Condition: initial
    Synchronize time with update: no
    Time units: yr
    Length units: m
      Datum:
        Dataset: Unnamed Ascii Dataset
          Type: dataset_ascii_type
          Transient: no
          Array Rank:  3

    Sub Condition: pressure
      Type: hydrostatic
      Gradient:
        Dataset: Unnamed Ascii Dataset
          Type: dataset_ascii_type
          Transient: no
          Array Rank:  3
      Data:
        Dataset: Unnamed Ascii Dataset
          Type: dataset_ascii_type
          Transient: no
          Array Rank:  1

    Sub Condition: temperature
      Type: dirichlet
      Gradient:
      Data:
        Dataset: Unnamed Ascii Dataset
          Type: dataset_ascii_type
          Transient: no
          Array Rank:  1

--------------------------------------------------------------------------------

=+=+=+=+=+=+=+=+=+=+=+=+=+=+=+=+=+=+=+=+=+=+=+=+=+=+=+=+=+=+=+=+=+=+=+=+=+=+=+=+

  Boundary Condition

--------------------------------------------------------------------------------
          Flow Condition:   initial
                  Region:   south
--------------------------------------------------------------------------------

  Flow Condition: initial
    Synchronize time with update: no
    Time units: yr
    Length units: m
      Datum:
        Dataset: Unnamed Ascii Dataset
          Type: dataset_ascii_type
          Transient: no
          Array Rank:  3

    Sub Condition: pressure
      Type: hydrostatic
      Gradient:
        Dataset: Unnamed Ascii Dataset
          Type: dataset_ascii_type
          Transient: no
          Array Rank:  3
      Data:
        Dataset: Unnamed Ascii Dataset
          Type: dataset_ascii_type
          Transient: no
          Array Rank:  1

    Sub Condition: temperature
      Type: dirichlet
      Gradient:
      Data:
        Dataset: Unnamed Ascii Dataset
          Type: dataset_ascii_type
          Transient: no
          Array Rank:  1

--------------------------------------------------------------------------------

=+=+=+=+=+=+=+=+=+=+=+=+=+=+=+=+=+=+=+=+=+=+=+=+=+=+=+=+=+=+=+=+=+=+=+=+=+=+=+=+

  Source Sink

--------------------------------------------------------------------------------
          Flow Condition:   injection
                  Region:   heatpump_inject1
--------------------------------------------------------------------------------

  Flow Condition: injection
    Synchronize time with update: no
    Time units: yr
    Length units: m
      Datum:

    Sub Condition: rate
      Type: scaled volumetric rate
      Gradient:
      Data:
        Dataset: Unnamed Ascii Dataset
          Type: dataset_ascii_type
          Is transient?: yes
          Number of times:      3
          Is cyclic?: no
          Buffer:
            Rank:  2
            Dims:    1   3
            Buffer Slice Size:   0
          Array Rank:  1

    Sub Condition: temperature
      Type: dirichlet
      Gradient:
      Data:
        Dataset: Unnamed Ascii Dataset
          Type: dataset_ascii_type
          Transient: no
          Array Rank:  1

--------------------------------------------------------------------------------

 Requested processors =    16

FLOW Time Stepper
                 acceleration: on
       acceleration threshold: 5
       number of ramp entries: 5
                ramp entry #1: 2.0000
                ramp entry #2: 2.0000
                ramp entry #3: 2.0000
                ramp entry #4: 2.0000
                ramp entry #5: 2.0000
                ramp entry #6: 1.8000
                ramp entry #7: 1.6000
                ramp entry #8: 1.4000
                ramp entry #9: 1.2000
               ramp entry #10: 1.0000
               ramp entry #11: 1.0000
               ramp entry #12: 1.0000
               ramp entry #13: 1.0000
      maximum number of steps: 999999
constant time steps threshold: 5
       maximum number of cuts: 16
             reduction factor: 5.000000E-01
        maximum growth factor: 2.000000E+00

FLOW Newton Solver
                         atol: 1.000000E-50
                         rtol: 1.000000E-03
                         stol: 1.000000E-08
                         dtol: 1.000000E+04
                      maxnorm: 1.000000E+20
                    inftolres: -9.990000E+02
                    inftolupd: 1.000000E+00
                 inftolrelupd: -9.990000E+02
                 inftolsclres: -9.990000E+02
                     max iter: 50
                     min iter: 1
                         maxf: 10000
                  matrix type: baij
         precond. matrix type: baij
               inexact newton: off
            print convergence: on
   print detailed convergence: off
          check infinity norm: on

FLOW Linear Solver
                       solver: bcgs
               preconditioner: bjacobi
                         atol: 1.000000E-50
                         rtol: 1.000000E-05
                         dtol: 1.000000E+04
            maximum iteration: 10000

== TH FLOW =====================================================================
  0 2r: 4.96E-08 2x: 0.00E+00 2u: 0.00E+00 ir: 6.94E-10 iu: 0.00E+00 rsn:   0
  1 2r: 4.91E-12 2x: 6.38E+07 2u: 6.00E+00 ir: 1.77E-13 iu: 1.15E-01 rsn: itol_upd
 Step      1 Time=  1.00000E-05 Dt=  1.00000E-05 [y] snes_conv_reason:   11
  newton =   1 [       1] linear =    66 [        66] cuts =  0 [   0]
  --> max chng: dpmx=   1.1463E-01 dtmpmx=   4.0552E-08

== TH FLOW =====================================================================
  0 2r: 4.81E-08 2x: 0.00E+00 2u: 0.00E+00 ir: 6.74E-10 iu: 0.00E+00 rsn:   0
  1 2r: 3.61E-12 2x: 6.38E+07 2u: 4.50E-01 ir: 1.17E-13 iu: 8.85E-03 rsn: itol_upd
 Step      2 Time=  3.00000E-05 Dt=  2.00000E-05 [y] snes_conv_reason:   11
  newton =   1 [       2] linear =    83 [       149] cuts =  0 [   0]
  --> max chng: dpmx=   8.8477E-03 dtmpmx=   8.0828E-08

== TH FLOW =====================================================================
  0 2r: 4.80E-08 2x: 0.00E+00 2u: 0.00E+00 ir: 6.72E-10 iu: 0.00E+00 rsn:   0
  1 2r: 1.78E-12 2x: 6.38E+07 2u: 1.71E-02 ir: 6.97E-14 iu: 3.39E-04 rsn: itol_upd
 Step      3 Time=  7.00000E-05 Dt=  4.00000E-05 [y] snes_conv_reason:   11
  newton =   1 [       3] linear =   115 [       264] cuts =  0 [   0]
  --> max chng: dpmx=   3.3882E-04 dtmpmx=   1.6164E-07

== TH FLOW =====================================================================
  0 2r: 4.80E-08 2x: 0.00E+00 2u: 0.00E+00 ir: 6.72E-10 iu: 0.00E+00 rsn:   0
  1 2r: 9.09E-13 2x: 6.38E+07 2u: 2.91E-04 ir: 3.66E-14 iu: 5.88E-06 rsn: itol_upd
 Step      4 Time=  1.50000E-04 Dt=  8.00000E-05 [y] snes_conv_reason:   11
  newton =   1 [       4] linear =   119 [       383] cuts =  0 [   0]
  --> max chng: dpmx=   5.8844E-06 dtmpmx=   3.2328E-07

== TH FLOW =====================================================================
  0 2r: 4.80E-08 2x: 0.00E+00 2u: 0.00E+00 ir: 6.72E-10 iu: 0.00E+00 rsn:   0
  1 2r: 4.85E-13 2x: 6.38E+07 2u: 1.19E-04 ir: 1.97E-14 iu: 2.69E-06 rsn: itol_upd
 Step      5 Time=  3.10000E-04 Dt=  1.60000E-04 [y] snes_conv_reason:   11
  newton =   1 [       5] linear =   122 [       505] cuts =  0 [   0]
  --> max chng: dpmx=   2.6862E-06 dtmpmx=   6.4655E-07

== TH FLOW =====================================================================
  0 2r: 4.80E-08 2x: 0.00E+00 2u: 0.00E+00 ir: 6.72E-10 iu: 0.00E+00 rsn:   0
  1 2r: 2.65E-13 2x: 6.38E+07 2u: 2.49E-04 ir: 1.11E-14 iu: 5.56E-06 rsn: itol_upd
 Step      6 Time=  6.30000E-04 Dt=  3.20000E-04 [y] snes_conv_reason:   11
  newton =   1 [       6] linear =   118 [       623] cuts =  0 [   0]
  --> max chng: dpmx=   5.5636E-06 dtmpmx=   1.2931E-06

== TH FLOW =====================================================================
  0 2r: 4.80E-08 2x: 0.00E+00 2u: 0.00E+00 ir: 6.72E-10 iu: 0.00E+00 rsn:   0
  1 2r: 1.84E-13 2x: 6.38E+07 2u: 5.31E-04 ir: 8.92E-15 iu: 1.19E-05 rsn: itol_upd
 Step      7 Time=  1.27000E-03 Dt=  6.40000E-04 [y] snes_conv_reason:   11
  newton =   1 [       7] linear =   119 [       742] cuts =  0 [   0]
  --> max chng: dpmx=   1.1886E-05 dtmpmx=   2.5862E-06

== TH FLOW =====================================================================
  0 2r: 4.80E-08 2x: 0.00E+00 2u: 0.00E+00 ir: 6.72E-10 iu: 0.00E+00 rsn:   0
  1 2r: 1.18E-13 2x: 6.38E+07 2u: 1.18E-03 ir: 6.24E-15 iu: 2.68E-05 rsn: itol_upd
 Step      8 Time=  2.55000E-03 Dt=  1.28000E-03 [y] snes_conv_reason:   11
  newton =   1 [       8] linear =   121 [       863] cuts =  0 [   0]
  --> max chng: dpmx=   2.6807E-05 dtmpmx=   5.1724E-06

== TH FLOW =====================================================================
  0 2r: 4.80E-08 2x: 0.00E+00 2u: 0.00E+00 ir: 6.72E-10 iu: 0.00E+00 rsn:   0
  1 2r: 7.89E-14 2x: 6.38E+07 2u: 2.85E-03 ir: 4.35E-15 iu: 6.57E-05 rsn: itol_upd
 Step      9 Time=  5.11000E-03 Dt=  2.56000E-03 [y] snes_conv_reason:   11
  newton =   1 [       9] linear =   117 [       980] cuts =  0 [   0]
  --> max chng: dpmx=   6.5712E-05 dtmpmx=   1.0345E-05

== TH FLOW =====================================================================
  0 2r: 4.79E-08 2x: 0.00E+00 2u: 0.00E+00 ir: 6.72E-10 iu: 0.00E+00 rsn:   0
  1 2r: 7.81E-14 2x: 6.38E+07 2u: 7.70E-03 ir: 3.60E-15 iu: 1.79E-04 rsn: itol_upd
 Step     10 Time=  1.02300E-02 Dt=  5.12000E-03 [y] snes_conv_reason:   11
  newton =   1 [      10] linear =   121 [      1101] cuts =  0 [   0]
  --> max chng: dpmx=   1.7948E-04 dtmpmx=   2.0690E-05

== TH FLOW =====================================================================
  0 2r: 4.78E-08 2x: 0.00E+00 2u: 0.00E+00 ir: 6.72E-10 iu: 0.00E+00 rsn:   0
  1 2r: 9.79E-14 2x: 6.38E+07 2u: 2.34E-02 ir: 6.20E-15 iu: 5.47E-04 rsn: itol_upd
 Step     11 Time=  2.04700E-02 Dt=  1.02400E-02 [y] snes_conv_reason:   11
  newton =   1 [      11] linear =   120 [      1221] cuts =  0 [   0]
  --> max chng: dpmx=   5.4681E-04 dtmpmx=   4.1380E-05

== TH FLOW =====================================================================
  0 2r: 4.77E-08 2x: 0.00E+00 2u: 0.00E+00 ir: 6.72E-10 iu: 0.00E+00 rsn:   0
  1 2r: 7.97E-14 2x: 6.38E+07 2u: 7.82E-02 ir: 4.23E-15 iu: 1.82E-03 rsn: itol_upd
 Step     12 Time=  4.09500E-02 Dt=  2.04800E-02 [y] snes_conv_reason:   11
  newton =   1 [      12] linear =   122 [      1343] cuts =  0 [   0]
  --> max chng: dpmx=   1.8170E-03 dtmpmx=   8.2759E-05

== TH FLOW =====================================================================
  0 2r: 4.74E-08 2x: 0.00E+00 2u: 0.00E+00 ir: 6.72E-10 iu: 0.00E+00 rsn:   0
  1 2r: 7.50E-14 2x: 6.38E+07 2u: 2.77E-01 ir: 3.85E-15 iu: 6.33E-03 rsn: itol_upd
 Step     13 Time=  8.19100E-02 Dt=  4.09600E-02 [y] snes_conv_reason:   11
  newton =   1 [      13] linear =   122 [      1465] cuts =  0 [   0]
  --> max chng: dpmx=   6.3269E-03 dtmpmx=   1.6552E-04

== TH FLOW =====================================================================
  0 2r: 4.68E-08 2x: 0.00E+00 2u: 0.00E+00 ir: 6.72E-10 iu: 0.00E+00 rsn:   0
  1 2r: 9.64E-14 2x: 6.38E+07 2u: 1.46E-01 ir: 3.80E-15 iu: 3.32E-03 rsn: itol_upd
 Step     14 Time=  1.00000E-01 Dt=  1.80900E-02 [y] snes_conv_reason:   11
  newton =   1 [      14] linear =   122 [      1587] cuts =  0 [   0]
  --> max chng: dpmx=   3.3242E-03 dtmpmx=   7.3102E-05

== TH FLOW =====================================================================
  0 2r: 4.65E-08 2x: 0.00E+00 2u: 0.00E+00 ir: 6.72E-10 iu: 0.00E+00 rsn:   0
  1 2r: 1.25E-13 2x: 6.38E+07 2u: 5.70E-01 ir: 4.63E-15 iu: 1.29E-02 rsn: itol_upd
 Step     15 Time=  1.50000E-01 Dt=  5.00000E-02 [y] snes_conv_reason:   11
  newton =   1 [      15] linear =   124 [      1711] cuts =  0 [   0]
  --> max chng: dpmx=   1.2854E-02 dtmpmx=   2.0205E-04

== TH FLOW =====================================================================
  0 2r: 4.58E-08 2x: 0.00E+00 2u: 0.00E+00 ir: 6.72E-10 iu: 0.00E+00 rsn:   0
  1 2r: 1.28E-13 2x: 6.38E+07 2u: 7.29E-01 ir: 5.22E-15 iu: 1.63E-02 rsn: itol_upd
 Step     16 Time=  2.00000E-01 Dt=  5.00000E-02 [y] snes_conv_reason:   11
  newton =   1 [      16] linear =   121 [      1832] cuts =  0 [   0]
  --> max chng: dpmx=   1.6297E-02 dtmpmx=   2.0205E-04

== TH FLOW =====================================================================
  0 2r: 1.66E-04 2x: 0.00E+00 2u: 0.00E+00 ir: 1.27E-04 iu: 0.00E+00 rsn:   0
  1 2r: 1.56E-05 2x: 6.38E+07 2u: 2.73E+03 ir: 1.38E-05 iu: 8.79E+01 rsn:   0
  2 2r: 9.66E-08 2x: 6.38E+07 2u: 1.58E+00 ir: 9.34E-08 iu: 3.58E-01 rsn: itol_upd
 Step     17 Time=  2.50000E-01 Dt=  5.00000E-02 [y] snes_conv_reason:   11
  newton =   2 [      18] linear =   227 [      2059] cuts =  0 [   0]
  --> max chng: dpmx=   8.7883E+01 dtmpmx=   1.3823E+00

== TH FLOW =====================================================================
  0 2r: 9.05E-06 2x: 0.00E+00 2u: 0.00E+00 ir: 4.50E-06 iu: 0.00E+00 rsn:   0
  1 2r: 3.99E-08 2x: 6.38E+07 2u: 7.70E+01 ir: 1.06E-08 iu: 1.87E+00 rsn:   0
  2 2r: 4.18E-12 2x: 6.38E+07 2u: 9.05E-02 ir: 2.95E-12 iu: 8.52E-03 rsn: itol_upd
 Step     18 Time=  3.00000E-01 Dt=  5.00000E-02 [y] snes_conv_reason:   11
  newton =   2 [      20] linear =   244 [      2303] cuts =  0 [   0]
  --> max chng: dpmx=   1.8675E+00 dtmpmx=   5.2498E-01

== TH FLOW =====================================================================
  0 2r: 6.13E-06 2x: 0.00E+00 2u: 0.00E+00 ir: 1.75E-06 iu: 0.00E+00 rsn:   0
  1 2r: 1.66E-08 2x: 6.38E+07 2u: 7.22E+01 ir: 3.42E-09 iu: 1.75E+00 rsn:   0
  2 2r: 3.19E-13 2x: 6.38E+07 2u: 7.07E-02 ir: 1.03E-13 iu: 3.73E-03 rsn: itol_upd
 Step     19 Time=  3.50000E-01 Dt=  5.00000E-02 [y] snes_conv_reason:   11
  newton =   2 [      22] linear =   251 [      2554] cuts =  0 [   0]
  --> max chng: dpmx=   1.7493E+00 dtmpmx=   3.7910E-01

== TH FLOW =====================================================================
  0 2r: 5.21E-06 2x: 0.00E+00 2u: 0.00E+00 ir: 1.26E-06 iu: 0.00E+00 rsn:   0
  1 2r: 9.81E-09 2x: 6.38E+07 2u: 6.81E+01 ir: 1.79E-09 iu: 1.65E+00 rsn:   0
  2 2r: 1.18E-13 2x: 6.38E+07 2u: 3.84E-02 ir: 2.25E-14 iu: 2.58E-03 rsn: itol_upd
 Step     20 Time=  4.00000E-01 Dt=  5.00000E-02 [y] snes_conv_reason:   11
  newton =   2 [      24] linear =   243 [      2797] cuts =  0 [   0]
  --> max chng: dpmx=   1.6511E+00 dtmpmx=   3.0820E-01

== TH FLOW =====================================================================
  0 2r: 4.68E-06 2x: 0.00E+00 2u: 0.00E+00 ir: 1.02E-06 iu: 0.00E+00 rsn:   0
  1 2r: 6.65E-09 2x: 6.38E+07 2u: 6.42E+01 ir: 1.12E-09 iu: 1.56E+00 rsn:   0
  2 2r: 8.25E-14 2x: 6.38E+07 2u: 3.41E-02 ir: 1.05E-14 iu: 1.77E-03 rsn: itol_upd
 Step     21 Time=  4.50000E-01 Dt=  5.00000E-02 [y] snes_conv_reason:   11
  newton =   2 [      26] linear =   241 [      3038] cuts =  0 [   0]
  --> max chng: dpmx=   1.5607E+00 dtmpmx=   2.6401E-01

== TH FLOW =====================================================================
  0 2r: 4.31E-06 2x: 0.00E+00 2u: 0.00E+00 ir: 8.78E-07 iu: 0.00E+00 rsn:   0
  1 2r: 4.88E-09 2x: 6.38E+07 2u: 6.03E+01 ir: 7.69E-10 iu: 1.47E+00 rsn:   0
  2 2r: 6.92E-14 2x: 6.38E+07 2u: 2.79E-02 ir: 6.60E-15 iu: 1.39E-03 rsn: itol_upd
 Step     22 Time=  5.00000E-01 Dt=  5.00000E-02 [y] snes_conv_reason:   11
  newton =   2 [      28] linear =   242 [      3280] cuts =  0 [   0]
  --> max chng: dpmx=   1.4751E+00 dtmpmx=   2.3296E-01

== TH FLOW =====================================================================
  0 2r: 4.03E-06 2x: 0.00E+00 2u: 0.00E+00 ir: 7.75E-07 iu: 0.00E+00 rsn:   0
  1 2r: 3.76E-09 2x: 6.38E+07 2u: 5.67E+01 ir: 5.62E-10 iu: 1.39E+00 rsn: rtol
 Step     23 Time=  5.50000E-01 Dt=  5.00000E-02 [y] snes_conv_reason:    3
  newton =   1 [      29] linear =   117 [      3397] cuts =  0 [   0]
  --> max chng: dpmx=   1.3923E+00 dtmpmx=   2.0963E-01

== TH FLOW =====================================================================
  0 2r: 3.81E-06 2x: 0.00E+00 2u: 0.00E+00 ir: 6.97E-07 iu: 0.00E+00 rsn:   0
  1 2r: 3.01E-09 2x: 6.38E+07 2u: 5.32E+01 ir: 4.31E-10 iu: 1.31E+00 rsn: rtol
 Step     24 Time=  6.00000E-01 Dt=  5.00000E-02 [y] snes_conv_reason:    3
  newton =   1 [      30] linear =   114 [      3511] cuts =  0 [   0]
  --> max chng: dpmx=   1.3136E+00 dtmpmx=   1.9119E-01

== TH FLOW =====================================================================
  0 2r: 3.62E-06 2x: 0.00E+00 2u: 0.00E+00 ir: 6.36E-07 iu: 0.00E+00 rsn:   0
  1 2r: 2.63E-09 2x: 6.38E+07 2u: 4.99E+01 ir: 5.38E-10 iu: 1.24E+00 rsn: rtol
 Step     25 Time=  6.50000E-01 Dt=  5.00000E-02 [y] snes_conv_reason:    3
  newton =   1 [      31] linear =   113 [      3624] cuts =  0 [   0]
  --> max chng: dpmx=   1.2359E+00 dtmpmx=   1.7611E-01

== TH FLOW =====================================================================
  0 2r: 3.46E-06 2x: 0.00E+00 2u: 0.00E+00 ir: 5.86E-07 iu: 0.00E+00 rsn:   0
  1 2r: 2.07E-09 2x: 6.38E+07 2u: 4.67E+01 ir: 2.74E-10 iu: 1.16E+00 rsn: rtol
 Step     26 Time=  7.00000E-01 Dt=  5.00000E-02 [y] snes_conv_reason:    3
  newton =   1 [      32] linear =   114 [      3738] cuts =  0 [   0]
  --> max chng: dpmx=   1.1598E+00 dtmpmx=   1.6345E-01

== TH FLOW =====================================================================
  0 2r: 3.32E-06 2x: 0.00E+00 2u: 0.00E+00 ir: 5.43E-07 iu: 0.00E+00 rsn:   0
  1 2r: 1.75E-09 2x: 6.38E+07 2u: 4.38E+01 ir: 2.25E-10 iu: 1.09E+00 rsn: rtol
 Step     27 Time=  7.50000E-01 Dt=  5.00000E-02 [y] snes_conv_reason:    3
  newton =   1 [      33] linear =   110 [      3848] cuts =  0 [   0]
  --> max chng: dpmx=   1.0856E+00 dtmpmx=   1.5262E-01

== TH FLOW =====================================================================
  0 2r: 3.19E-06 2x: 0.00E+00 2u: 0.00E+00 ir: 5.07E-07 iu: 0.00E+00 rsn:   0
  1 2r: 1.50E-09 2x: 6.38E+07 2u: 4.12E+01 ir: 1.89E-10 iu: 1.01E+00 rsn: rtol
 Step     28 Time=  8.00000E-01 Dt=  5.00000E-02 [y] snes_conv_reason:    3
  newton =   1 [      34] linear =   109 [      3957] cuts =  0 [   0]
  --> max chng: dpmx=   1.0123E+00 dtmpmx=   1.4323E-01

== TH FLOW =====================================================================
  0 2r: 3.08E-06 2x: 0.00E+00 2u: 0.00E+00 ir: 4.76E-07 iu: 0.00E+00 rsn:   0
  1 2r: 1.30E-09 2x: 6.38E+07 2u: 3.89E+01 ir: 1.59E-10 iu: 9.41E-01 rsn: itol_upd
 Step     29 Time=  8.50000E-01 Dt=  5.00000E-02 [y] snes_conv_reason:   11
  newton =   1 [      35] linear =   114 [      4071] cuts =  0 [   0]
  --> max chng: dpmx=   9.4058E-01 dtmpmx=   1.3497E-01

== TH FLOW =====================================================================
  0 2r: 2.98E-06 2x: 0.00E+00 2u: 0.00E+00 ir: 4.49E-07 iu: 0.00E+00 rsn:   0
  1 2r: 1.14E-09 2x: 6.38E+07 2u: 3.69E+01 ir: 1.37E-10 iu: 8.69E-01 rsn: itol_upd
 Step     30 Time=  9.00000E-01 Dt=  5.00000E-02 [y] snes_conv_reason:   11
  newton =   1 [      36] linear =   111 [      4182] cuts =  0 [   0]
  --> max chng: dpmx=   8.6932E-01 dtmpmx=   1.2764E-01

== TH FLOW =====================================================================
  0 2r: 2.89E-06 2x: 0.00E+00 2u: 0.00E+00 ir: 4.24E-07 iu: 0.00E+00 rsn:   0
  1 2r: 1.01E-09 2x: 6.38E+07 2u: 3.54E+01 ir: 1.18E-10 iu: 7.99E-01 rsn: itol_upd
 Step     31 Time=  9.50000E-01 Dt=  5.00000E-02 [y] snes_conv_reason:   11
  newton =   1 [      37] linear =   112 [      4294] cuts =  0 [   0]
  --> max chng: dpmx=   7.9937E-01 dtmpmx=   1.2108E-01

== TH FLOW =====================================================================
  0 2r: 2.81E-06 2x: 0.00E+00 2u: 0.00E+00 ir: 4.03E-07 iu: 0.00E+00 rsn:   0
  1 2r: 8.99E-10 2x: 6.38E+07 2u: 3.43E+01 ir: 1.03E-10 iu: 7.43E-01 rsn: itol_upd
 Step     32 Time=  1.00000E+00 Dt=  5.00000E-02 [y] snes_conv_reason:   11
  newton =   1 [      38] linear =   109 [      4403] cuts =  0 [   0]
  --> max chng: dpmx=   7.4260E-01 dtmpmx=   1.1517E-01

== TH FLOW =====================================================================
  0 2r: 2.73E-06 2x: 0.00E+00 2u: 0.00E+00 ir: 3.83E-07 iu: 0.00E+00 rsn:   0
  1 2r: 8.05E-10 2x: 6.38E+07 2u: 3.38E+01 ir: 9.04E-11 iu: 7.86E-01 rsn: itol_upd
 Step     33 Time=  1.05000E+00 Dt=  5.00000E-02 [y] snes_conv_reason:   11
  newton =   1 [      39] linear =   111 [      4514] cuts =  0 [   0]
  --> max chng: dpmx=   7.8581E-01 dtmpmx=   1.0980E-01

== TH FLOW =====================================================================
  0 2r: 2.66E-06 2x: 0.00E+00 2u: 0.00E+00 ir: 3.65E-07 iu: 0.00E+00 rsn:   0
  1 2r: 7.24E-10 2x: 6.38E+07 2u: 3.37E+01 ir: 7.99E-11 iu: 8.30E-01 rsn: itol_upd
 Step     34 Time=  1.10000E+00 Dt=  5.00000E-02 [y] snes_conv_reason:   11
  newton =   1 [      40] linear =   114 [      4628] cuts =  0 [   0]
  --> max chng: dpmx=   8.2954E-01 dtmpmx=   1.0491E-01

== TH FLOW =====================================================================
  0 2r: 2.60E-06 2x: 0.00E+00 2u: 0.00E+00 ir: 3.49E-07 iu: 0.00E+00 rsn:   0
  1 2r: 6.56E-10 2x: 6.38E+07 2u: 3.42E+01 ir: 7.10E-11 iu: 8.74E-01 rsn: itol_upd
 Step     35 Time=  1.15000E+00 Dt=  5.00000E-02 [y] snes_conv_reason:   11
  newton =   1 [      41] linear =   109 [      4737] cuts =  0 [   0]
  --> max chng: dpmx=   8.7369E-01 dtmpmx=   1.0042E-01

== TH FLOW =====================================================================
  0 2r: 2.53E-06 2x: 0.00E+00 2u: 0.00E+00 ir: 3.34E-07 iu: 0.00E+00 rsn:   0
  1 2r: 5.96E-10 2x: 6.38E+07 2u: 3.52E+01 ir: 6.34E-11 iu: 9.18E-01 rsn: itol_upd
 Step     36 Time=  1.20000E+00 Dt=  5.00000E-02 [y] snes_conv_reason:   11
  newton =   1 [      42] linear =   109 [      4846] cuts =  0 [   0]
  --> max chng: dpmx=   9.1808E-01 dtmpmx=   9.6287E-02

== TH FLOW =====================================================================
  0 2r: 2.48E-06 2x: 0.00E+00 2u: 0.00E+00 ir: 3.20E-07 iu: 0.00E+00 rsn:   0
  1 2r: 5.45E-10 2x: 6.38E+07 2u: 3.66E+01 ir: 5.69E-11 iu: 9.63E-01 rsn: itol_upd
 Step     37 Time=  1.25000E+00 Dt=  5.00000E-02 [y] snes_conv_reason:   11
  newton =   1 [      43] linear =   108 [      4954] cuts =  0 [   0]
  --> max chng: dpmx=   9.6255E-01 dtmpmx=   9.2469E-02

== TH FLOW =====================================================================
  0 2r: 2.42E-06 2x: 0.00E+00 2u: 0.00E+00 ir: 3.07E-07 iu: 0.00E+00 rsn:   0
  1 2r: 4.99E-10 2x: 6.38E+07 2u: 3.83E+01 ir: 5.12E-11 iu: 1.01E+00 rsn: rtol
 Step     38 Time=  1.30000E+00 Dt=  5.00000E-02 [y] snes_conv_reason:    3
  newton =   1 [      44] linear =   106 [      5060] cuts =  0 [   0]
  --> max chng: dpmx=   1.0070E+00 dtmpmx=   8.8930E-02

== TH FLOW =====================================================================
  0 2r: 2.37E-06 2x: 0.00E+00 2u: 0.00E+00 ir: 2.96E-07 iu: 0.00E+00 rsn:   0
  1 2r: 4.59E-10 2x: 6.38E+07 2u: 4.04E+01 ir: 4.64E-11 iu: 1.05E+00 rsn: rtol
 Step     39 Time=  1.35000E+00 Dt=  5.00000E-02 [y] snes_conv_reason:    3
  newton =   1 [      45] linear =   101 [      5161] cuts =  0 [   0]
  --> max chng: dpmx=   1.0506E+00 dtmpmx=   8.5639E-02

== TH FLOW =====================================================================
  0 2r: 2.32E-06 2x: 0.00E+00 2u: 0.00E+00 ir: 2.85E-07 iu: 0.00E+00 rsn:   0
  1 2r: 4.23E-10 2x: 6.38E+07 2u: 4.27E+01 ir: 4.21E-11 iu: 1.09E+00 rsn: rtol
 Step     40 Time=  1.40000E+00 Dt=  5.00000E-02 [y] snes_conv_reason:    3
  newton =   1 [      46] linear =   105 [      5266] cuts =  0 [   0]
  --> max chng: dpmx=   1.0933E+00 dtmpmx=   8.2573E-02

== TH FLOW =====================================================================
  0 2r: 2.28E-06 2x: 0.00E+00 2u: 0.00E+00 ir: 2.75E-07 iu: 0.00E+00 rsn:   0
  1 2r: 3.90E-10 2x: 6.38E+07 2u: 4.51E+01 ir: 3.82E-11 iu: 1.13E+00 rsn: rtol
 Step     41 Time=  1.45000E+00 Dt=  5.00000E-02 [y] snes_conv_reason:    3
  newton =   1 [      47] linear =   105 [      5371] cuts =  0 [   0]
  --> max chng: dpmx=   1.1341E+00 dtmpmx=   7.9708E-02

== TH FLOW =====================================================================
  0 2r: 2.24E-06 2x: 0.00E+00 2u: 0.00E+00 ir: 2.65E-07 iu: 0.00E+00 rsn:   0
  1 2r: 3.64E-10 2x: 6.38E+07 2u: 4.75E+01 ir: 3.49E-11 iu: 1.17E+00 rsn: rtol
 Step     42 Time=  1.50000E+00 Dt=  5.00000E-02 [y] snes_conv_reason:    3
  newton =   1 [      48] linear =   110 [      5481] cuts =  0 [   0]
  --> max chng: dpmx=   1.1718E+00 dtmpmx=   7.7023E-02

== TH FLOW =====================================================================
  0 2r: 2.20E-06 2x: 0.00E+00 2u: 0.00E+00 ir: 2.56E-07 iu: 0.00E+00 rsn:   0
  1 2r: 3.38E-10 2x: 6.38E+07 2u: 4.98E+01 ir: 3.21E-11 iu: 1.21E+00 rsn: rtol
 Step     43 Time=  1.55000E+00 Dt=  5.00000E-02 [y] snes_conv_reason:    3
  newton =   1 [      49] linear =   101 [      5582] cuts =  0 [   0]
  --> max chng: dpmx=   1.2060E+00 dtmpmx=   7.4502E-02

== TH FLOW =====================================================================
  0 2r: 2.16E-06 2x: 0.00E+00 2u: 0.00E+00 ir: 2.48E-07 iu: 0.00E+00 rsn:   0
  1 2r: 3.15E-10 2x: 6.38E+07 2u: 5.19E+01 ir: 2.94E-11 iu: 1.23E+00 rsn: rtol
 Step     44 Time=  1.60000E+00 Dt=  5.00000E-02 [y] snes_conv_reason:    3
  newton =   1 [      50] linear =    97 [      5679] cuts =  0 [   0]
  --> max chng: dpmx=   1.2348E+00 dtmpmx=   7.2129E-02

== TH FLOW =====================================================================
  0 2r: 2.12E-06 2x: 0.00E+00 2u: 0.00E+00 ir: 2.40E-07 iu: 0.00E+00 rsn:   0
  1 2r: 2.92E-10 2x: 6.38E+07 2u: 5.37E+01 ir: 2.70E-11 iu: 1.26E+00 rsn: rtol
 Step     45 Time=  1.65000E+00 Dt=  5.00000E-02 [y] snes_conv_reason:    3
  newton =   1 [      51] linear =    97 [      5776] cuts =  0 [   0]
  --> max chng: dpmx=   1.2561E+00 dtmpmx=   6.9893E-02

== TH FLOW =====================================================================
  0 2r: 2.08E-06 2x: 0.00E+00 2u: 0.00E+00 ir: 2.32E-07 iu: 0.00E+00 rsn:   0
  1 2r: 2.75E-10 2x: 6.38E+07 2u: 5.51E+01 ir: 2.49E-11 iu: 1.27E+00 rsn: rtol
 Step     46 Time=  1.70000E+00 Dt=  5.00000E-02 [y] snes_conv_reason:    3
  newton =   1 [      52] linear =   105 [      5881] cuts =  0 [   0]
  --> max chng: dpmx=   1.2692E+00 dtmpmx=   6.7781E-02

== TH FLOW =====================================================================
  0 2r: 2.04E-06 2x: 0.00E+00 2u: 0.00E+00 ir: 2.25E-07 iu: 0.00E+00 rsn:   0
  1 2r: 2.55E-10 2x: 6.38E+07 2u: 5.59E+01 ir: 2.30E-11 iu: 1.27E+00 rsn: rtol
 Step     47 Time=  1.75000E+00 Dt=  5.00000E-02 [y] snes_conv_reason:    3
  newton =   1 [      53] linear =   109 [      5990] cuts =  0 [   0]
  --> max chng: dpmx=   1.2717E+00 dtmpmx=   6.5783E-02

== TH FLOW =====================================================================
  0 2r: 2.00E-06 2x: 0.00E+00 2u: 0.00E+00 ir: 2.19E-07 iu: 0.00E+00 rsn:   0
  1 2r: 2.35E-10 2x: 6.38E+07 2u: 5.61E+01 ir: 2.12E-11 iu: 1.26E+00 rsn: rtol
 Step     48 Time=  1.80000E+00 Dt=  5.00000E-02 [y] snes_conv_reason:    3
  newton =   1 [      54] linear =   113 [      6103] cuts =  0 [   0]
  --> max chng: dpmx=   1.2621E+00 dtmpmx=   6.3891E-02

== TH FLOW =====================================================================
  0 2r: 1.95E-06 2x: 0.00E+00 2u: 0.00E+00 ir: 2.12E-07 iu: 0.00E+00 rsn:   0
  1 2r: 2.16E-10 2x: 6.38E+07 2u: 5.56E+01 ir: 1.96E-11 iu: 1.24E+00 rsn: rtol
 Step     49 Time=  1.85000E+00 Dt=  5.00000E-02 [y] snes_conv_reason:    3
  newton =   1 [      55] linear =   105 [      6208] cuts =  0 [   0]
  --> max chng: dpmx=   1.2395E+00 dtmpmx=   6.2097E-02

== TH FLOW =====================================================================
  0 2r: 1.89E-06 2x: 0.00E+00 2u: 0.00E+00 ir: 2.06E-07 iu: 0.00E+00 rsn:   0
  1 2r: 1.96E-10 2x: 6.38E+07 2u: 5.44E+01 ir: 1.83E-11 iu: 1.20E+00 rsn: rtol
 Step     50 Time=  1.90000E+00 Dt=  5.00000E-02 [y] snes_conv_reason:    3
  newton =   1 [      56] linear =   110 [      6318] cuts =  0 [   0]
  --> max chng: dpmx=   1.2035E+00 dtmpmx=   6.0393E-02

== TH FLOW =====================================================================
  0 2r: 1.83E-06 2x: 0.00E+00 2u: 0.00E+00 ir: 2.01E-07 iu: 0.00E+00 rsn:   0
  1 2r: 1.76E-10 2x: 6.38E+07 2u: 5.24E+01 ir: 1.68E-11 iu: 1.15E+00 rsn: rtol
 Step     51 Time=  1.95000E+00 Dt=  5.00000E-02 [y] snes_conv_reason:    3
  newton =   1 [      57] linear =   114 [      6432] cuts =  0 [   0]
  --> max chng: dpmx=   1.1534E+00 dtmpmx=   5.8772E-02

== TH FLOW =====================================================================
  0 2r: 1.76E-06 2x: 0.00E+00 2u: 0.00E+00 ir: 1.95E-07 iu: 0.00E+00 rsn:   0
  1 2r: 1.56E-10 2x: 6.38E+07 2u: 4.98E+01 ir: 1.56E-11 iu: 1.09E+00 rsn: rtol
 Step     52 Time=  2.00000E+00 Dt=  5.00000E-02 [y] snes_conv_reason:    3
  newton =   1 [      58] linear =   112 [      6544] cuts =  0 [   0]
  --> max chng: dpmx=   1.0911E+00 dtmpmx=   5.7230E-02

== TH FLOW =====================================================================
  0 2r: 1.67E-06 2x: 0.00E+00 2u: 0.00E+00 ir: 1.90E-07 iu: 0.00E+00 rsn:   0
  1 2r: 1.39E-10 2x: 6.38E+07 2u: 4.65E+01 ir: 1.45E-11 iu: 1.02E+00 rsn: rtol
 Step     53 Time=  2.05000E+00 Dt=  5.00000E-02 [y] snes_conv_reason:    3
  newton =   1 [      59] linear =   115 [      6659] cuts =  0 [   0]
  --> max chng: dpmx=   1.0170E+00 dtmpmx=   5.5760E-02

== TH FLOW =====================================================================
  0 2r: 1.57E-06 2x: 0.00E+00 2u: 0.00E+00 ir: 1.85E-07 iu: 0.00E+00 rsn:   0
  1 2r: 1.26E-10 2x: 6.38E+07 2u: 4.28E+01 ir: 1.35E-11 iu: 9.34E-01 rsn: itol_upd
 Step     54 Time=  2.10000E+00 Dt=  5.00000E-02 [y] snes_conv_reason:   11
  newton =   1 [      60] linear =   115 [      6774] cuts =  0 [   0]
  --> max chng: dpmx=   9.3413E-01 dtmpmx=   5.4358E-02

== TH FLOW =====================================================================
  0 2r: 1.46E-06 2x: 0.00E+00 2u: 0.00E+00 ir: 1.81E-07 iu: 0.00E+00 rsn:   0
  1 2r: 1.17E-10 2x: 6.38E+07 2u: 3.87E+01 ir: 1.26E-11 iu: 8.45E-01 rsn: itol_upd
 Step     55 Time=  2.15000E+00 Dt=  5.00000E-02 [y] snes_conv_reason:   11
  newton =   1 [      61] linear =   113 [      6887] cuts =  0 [   0]
  --> max chng: dpmx=   8.4494E-01 dtmpmx=   5.3019E-02

== TH FLOW =====================================================================
  0 2r: 1.34E-06 2x: 0.00E+00 2u: 0.00E+00 ir: 1.76E-07 iu: 0.00E+00 rsn:   0
  1 2r: 1.10E-10 2x: 6.38E+07 2u: 3.45E+01 ir: 1.17E-11 iu: 7.52E-01 rsn: itol_upd
 Step     56 Time=  2.20000E+00 Dt=  5.00000E-02 [y] snes_conv_reason:   11
  newton =   1 [      62] linear =   107 [      6994] cuts =  0 [   0]
  --> max chng: dpmx=   7.5205E-01 dtmpmx=   5.1730E-02

== TH FLOW =====================================================================
  0 2r: 1.21E-06 2x: 0.00E+00 2u: 0.00E+00 ir: 1.72E-07 iu: 0.00E+00 rsn:   0
  1 2r: 1.03E-10 2x: 6.38E+07 2u: 3.02E+01 ir: 1.09E-11 iu: 6.59E-01 rsn: itol_upd
 Step     57 Time=  2.25000E+00 Dt=  5.00000E-02 [y] snes_conv_reason:   11
  newton =   1 [      63] linear =   113 [      7107] cuts =  0 [   0]
  --> max chng: dpmx=   6.5888E-01 dtmpmx=   4.9768E-02

== TH FLOW =====================================================================
  0 2r: 1.08E-06 2x: 0.00E+00 2u: 0.00E+00 ir: 1.65E-07 iu: 0.00E+00 rsn:   0
  1 2r: 9.43E-11 2x: 6.38E+07 2u: 2.60E+01 ir: 1.04E-11 iu: 5.68E-01 rsn: itol_upd
 Step     58 Time=  2.30000E+00 Dt=  5.00000E-02 [y] snes_conv_reason:   11
  newton =   1 [      64] linear =   110 [      7217] cuts =  0 [   0]
  --> max chng: dpmx=   5.6812E-01 dtmpmx=   4.6973E-02

== TH FLOW =====================================================================
  0 2r: 9.53E-07 2x: 0.00E+00 2u: 0.00E+00 ir: 1.56E-07 iu: 0.00E+00 rsn:   0
  1 2r: 8.36E-11 2x: 6.38E+07 2u: 2.20E+01 ir: 9.50E-12 iu: 4.82E-01 rsn: itol_upd
 Step     59 Time=  2.35000E+00 Dt=  5.00000E-02 [y] snes_conv_reason:   11
  newton =   1 [      65] linear =   116 [      7333] cuts =  0 [   0]
  --> max chng: dpmx=   4.8182E-01 dtmpmx=   4.3360E-02

== TH FLOW =====================================================================
  0 2r: 8.25E-07 2x: 0.00E+00 2u: 0.00E+00 ir: 1.44E-07 iu: 0.00E+00 rsn:   0
  1 2r: 7.13E-11 2x: 6.38E+07 2u: 1.83E+01 ir: 8.85E-12 iu: 4.02E-01 rsn: itol_upd
 Step     60 Time=  2.40000E+00 Dt=  5.00000E-02 [y] snes_conv_reason:   11
  newton =   1 [      66] linear =   117 [      7450] cuts =  0 [   0]
  --> max chng: dpmx=   4.0220E-01 dtmpmx=   3.9173E-02

== TH FLOW =====================================================================
  0 2r: 7.03E-07 2x: 0.00E+00 2u: 0.00E+00 ir: 1.30E-07 iu: 0.00E+00 rsn:   0
  1 2r: 5.83E-11 2x: 6.38E+07 2u: 1.50E+01 ir: 8.16E-12 iu: 3.30E-01 rsn: itol_upd
 Step     61 Time=  2.45000E+00 Dt=  5.00000E-02 [y] snes_conv_reason:   11
  newton =   1 [      67] linear =   115 [      7565] cuts =  0 [   0]
  --> max chng: dpmx=   3.3043E-01 dtmpmx=   3.4662E-02

== TH FLOW =====================================================================
  0 2r: 5.90E-07 2x: 0.00E+00 2u: 0.00E+00 ir: 1.15E-07 iu: 0.00E+00 rsn:   0
  1 2r: 4.57E-11 2x: 6.38E+07 2u: 1.21E+01 ir: 7.26E-12 iu: 2.67E-01 rsn: itol_upd
 Step     62 Time=  2.50000E+00 Dt=  5.00000E-02 [y] snes_conv_reason:   11
  newton =   1 [      68] linear =   119 [      7684] cuts =  0 [   0]
  --> max chng: dpmx=   2.6704E-01 dtmpmx=   3.0059E-02

== TH FLOW =====================================================================
  0 2r: 4.87E-07 2x: 0.00E+00 2u: 0.00E+00 ir: 9.99E-08 iu: 0.00E+00 rsn:   0
  1 2r: 3.44E-11 2x: 6.38E+07 2u: 9.62E+00 ir: 6.03E-12 iu: 2.13E-01 rsn: itol_upd
 Step     63 Time=  2.55000E+00 Dt=  5.00000E-02 [y] snes_conv_reason:   11
  newton =   1 [      69] linear =   118 [      7802] cuts =  0 [   0]
  --> max chng: dpmx=   2.1254E-01 dtmpmx=   2.5565E-02

== TH FLOW =====================================================================
  0 2r: 3.96E-07 2x: 0.00E+00 2u: 0.00E+00 ir: 8.50E-08 iu: 0.00E+00 rsn:   0
  1 2r: 2.48E-11 2x: 6.38E+07 2u: 7.52E+00 ir: 4.73E-12 iu: 1.67E-01 rsn: itol_upd
 Step     64 Time=  2.60000E+00 Dt=  5.00000E-02 [y] snes_conv_reason:   11
  newton =   1 [      70] linear =   120 [      7922] cuts =  0 [   0]
  --> max chng: dpmx=   1.6656E-01 dtmpmx=   2.1336E-02

== TH FLOW =====================================================================
  0 2r: 3.17E-07 2x: 0.00E+00 2u: 0.00E+00 ir: 7.09E-08 iu: 0.00E+00 rsn:   0
  1 2r: 1.72E-11 2x: 6.38E+07 2u: 5.78E+00 ir: 3.52E-12 iu: 1.29E-01 rsn: itol_upd
 Step     65 Time=  2.65000E+00 Dt=  5.00000E-02 [y] snes_conv_reason:   11
  newton =   1 [      71] linear =   122 [      8044] cuts =  0 [   0]
  --> max chng: dpmx=   1.2852E-01 dtmpmx=   1.7485E-02

== TH FLOW =====================================================================
  0 2r: 2.50E-07 2x: 0.00E+00 2u: 0.00E+00 ir: 5.81E-08 iu: 0.00E+00 rsn:   0
  1 2r: 1.15E-11 2x: 6.38E+07 2u: 4.38E+00 ir: 2.50E-12 iu: 9.77E-02 rsn: itol_upd
 Step     66 Time=  2.70000E+00 Dt=  5.00000E-02 [y] snes_conv_reason:   11
  newton =   1 [      72] linear =   120 [      8164] cuts =  0 [   0]
  --> max chng: dpmx=   9.7670E-02 dtmpmx=   1.4077E-02

== TH FLOW =====================================================================
  0 2r: 1.94E-07 2x: 0.00E+00 2u: 0.00E+00 ir: 4.68E-08 iu: 0.00E+00 rsn:   0
  1 2r: 7.42E-12 2x: 6.38E+07 2u: 3.26E+00 ir: 1.69E-12 iu: 7.31E-02 rsn: itol_upd
 Step     67 Time=  2.75000E+00 Dt=  5.00000E-02 [y] snes_conv_reason:   11
  newton =   1 [      73] linear =   121 [      8285] cuts =  0 [   0]
  --> max chng: dpmx=   7.3114E-02 dtmpmx=   1.1140E-02

== TH FLOW =====================================================================
  0 2r: 1.48E-07 2x: 0.00E+00 2u: 0.00E+00 ir: 3.70E-08 iu: 0.00E+00 rsn:   0
  1 2r: 4.62E-12 2x: 6.38E+07 2u: 2.39E+00 ir: 1.10E-12 iu: 5.39E-02 rsn: itol_upd
 Step     68 Time=  2.80000E+00 Dt=  5.00000E-02 [y] snes_conv_reason:   11
  newton =   1 [      74] linear =   121 [      8406] cuts =  0 [   0]
  --> max chng: dpmx=   5.3917E-02 dtmpmx=   8.6679E-03

== TH FLOW =====================================================================
  0 2r: 1.12E-07 2x: 0.00E+00 2u: 0.00E+00 ir: 2.88E-08 iu: 0.00E+00 rsn:   0
  1 2r: 2.78E-12 2x: 6.38E+07 2u: 1.73E+00 ir: 6.91E-13 iu: 3.92E-02 rsn: itol_upd
 Step     69 Time=  2.85000E+00 Dt=  5.00000E-02 [y] snes_conv_reason:   11
  newton =   1 [      75] linear =   122 [      8528] cuts =  0 [   0]
  --> max chng: dpmx=   3.9170E-02 dtmpmx=   6.6342E-03

== TH FLOW =====================================================================
  0 2r: 8.29E-08 2x: 0.00E+00 2u: 0.00E+00 ir: 2.21E-08 iu: 0.00E+00 rsn:   0
  1 2r: 1.64E-12 2x: 6.38E+07 2u: 1.22E+00 ir: 4.17E-13 iu: 2.80E-02 rsn: itol_upd
 Step     70 Time=  2.90000E+00 Dt=  5.00000E-02 [y] snes_conv_reason:   11
  newton =   1 [      76] linear =   122 [      8650] cuts =  0 [   0]
  --> max chng: dpmx=   2.8025E-02 dtmpmx=   4.9960E-03

== TH FLOW =====================================================================
  0 2r: 6.06E-08 2x: 0.00E+00 2u: 0.00E+00 ir: 1.66E-08 iu: 0.00E+00 rsn:   0
  1 2r: 9.18E-13 2x: 6.38E+07 2u: 8.50E-01 ir: 2.40E-13 iu: 1.97E-02 rsn: itol_upd
 Step     71 Time=  2.95000E+00 Dt=  5.00000E-02 [y] snes_conv_reason:   11
  newton =   1 [      77] linear =   122 [      8772] cuts =  0 [   0]
  --> max chng: dpmx=   1.9726E-02 dtmpmx=   3.7023E-03

== TH FLOW =====================================================================
  0 2r: 4.36E-08 2x: 0.00E+00 2u: 0.00E+00 ir: 1.23E-08 iu: 0.00E+00 rsn:   0
  1 2r: 5.19E-13 2x: 6.38E+07 2u: 5.79E-01 ir: 1.37E-13 iu: 1.37E-02 rsn: itol_upd
 Step     72 Time=  3.00000E+00 Dt=  5.00000E-02 [y] snes_conv_reason:   11
  newton =   1 [      78] linear =   122 [      8894] cuts =  0 [   0]
  --> max chng: dpmx=   1.3668E-02 dtmpmx=   2.7000E-03

== TH FLOW =====================================================================
  0 2r: 3.09E-08 2x: 0.00E+00 2u: 0.00E+00 ir: 8.98E-09 iu: 0.00E+00 rsn:   0
  1 2r: 2.93E-13 2x: 6.38E+07 2u: 3.84E-01 ir: 7.37E-14 iu: 9.30E-03 rsn: itol_upd
 Step     73 Time=  3.05000E+00 Dt=  5.00000E-02 [y] snes_conv_reason:   11
  newton =   1 [      79] linear =   124 [      9018] cuts =  0 [   0]
  --> max chng: dpmx=   9.3024E-03 dtmpmx=   1.9372E-03

== TH FLOW =====================================================================
  0 2r: 2.15E-08 2x: 0.00E+00 2u: 0.00E+00 ir: 6.44E-09 iu: 0.00E+00 rsn:   0
  1 2r: 1.58E-13 2x: 6.38E+07 2u: 2.46E-01 ir: 3.79E-14 iu: 6.21E-03 rsn: itol_upd
 Step     74 Time=  3.10000E+00 Dt=  5.00000E-02 [y] snes_conv_reason:   11
  newton =   1 [      80] linear =   126 [      9144] cuts =  0 [   0]
  --> max chng: dpmx=   6.2076E-03 dtmpmx=   1.3668E-03

== TH FLOW =====================================================================
  0 2r: 1.47E-08 2x: 0.00E+00 2u: 0.00E+00 ir: 4.54E-09 iu: 0.00E+00 rsn:   0
  1 2r: 1.78E-13 2x: 6.38E+07 2u: 1.51E-01 ir: 7.22E-14 iu: 4.05E-03 rsn: itol_upd
 Step     75 Time=  3.15000E+00 Dt=  5.00000E-02 [y] snes_conv_reason:   11
  newton =   1 [      81] linear =   126 [      9270] cuts =  0 [   0]
  --> max chng: dpmx=   4.0488E-03 dtmpmx=   9.4735E-04

== TH FLOW =====================================================================
  0 2r: 9.91E-09 2x: 0.00E+00 2u: 0.00E+00 ir: 3.15E-09 iu: 0.00E+00 rsn:   0
  1 2r: 8.83E-14 2x: 6.38E+07 2u: 8.67E-02 ir: 2.05E-14 iu: 2.57E-03 rsn: itol_upd
 Step     76 Time=  3.20000E+00 Dt=  5.00000E-02 [y] snes_conv_reason:   11
  newton =   1 [      82] linear =   126 [      9396] cuts =  0 [   0]
  --> max chng: dpmx=   2.5686E-03 dtmpmx=   6.4382E-04

== TH FLOW =====================================================================
  0 2r: 6.55E-09 2x: 0.00E+00 2u: 0.00E+00 ir: 2.14E-09 iu: 0.00E+00 rsn:   0
  1 2r: 2.23E-13 2x: 6.38E+07 2u: 4.61E-02 ir: 1.02E-13 iu: 1.57E-03 rsn: itol_upd
 Step     77 Time=  3.25000E+00 Dt=  5.00000E-02 [y] snes_conv_reason:   11
  newton =   1 [      83] linear =   124 [      9520] cuts =  0 [   0]
  --> max chng: dpmx=   1.5747E-03 dtmpmx=   4.2761E-04

== TH FLOW =====================================================================
  0 2r: 4.26E-09 2x: 0.00E+00 2u: 0.00E+00 ir: 1.42E-09 iu: 0.00E+00 rsn:   0
  1 2r: 8.63E-14 2x: 6.38E+07 2u: 2.61E-02 ir: 1.62E-14 iu: 9.23E-04 rsn: itol_upd
 Step     78 Time=  3.30000E+00 Dt=  5.00000E-02 [y] snes_conv_reason:   11
  newton =   1 [      84] linear =   123 [      9643] cuts =  0 [   0]
  --> max chng: dpmx=   9.2298E-04 dtmpmx=   2.7597E-04

== TH FLOW =====================================================================
  0 2r: 2.78E-09 2x: 0.00E+00 2u: 0.00E+00 ir: 9.18E-10 iu: 0.00E+00 rsn:   0
  1 2r: 1.66E-13 2x: 6.38E+07 2u: 2.49E-02 ir: 7.66E-14 iu: 5.23E-04 rsn: itol_upd
 Step     79 Time=  3.35000E+00 Dt=  5.00000E-02 [y] snes_conv_reason:   11
  newton =   1 [      85] linear =   120 [      9763] cuts =  0 [   0]
  --> max chng: dpmx=   5.2341E-04 dtmpmx=   1.7122E-04

== TH FLOW =====================================================================
  0 2r: 1.89E-09 2x: 0.00E+00 2u: 0.00E+00 ir: 5.69E-10 iu: 0.00E+00 rsn:   0
  1 2r: 6.62E-14 2x: 6.38E+07 2u: 3.01E-02 ir: 3.54E-15 iu: 6.56E-04 rsn: itol_upd
 Step     80 Time=  3.40000E+00 Dt=  5.00000E-02 [y] snes_conv_reason:   11
  newton =   1 [      86] linear =   120 [      9883] cuts =  0 [   0]
  --> max chng: dpmx=   6.5598E-04 dtmpmx=   9.9963E-05

== TH FLOW =====================================================================
  0 2r: 1.43E-09 2x: 0.00E+00 2u: 0.00E+00 ir: 3.32E-10 iu: 0.00E+00 rsn:   0
  1 2r: 7.02E-14 2x: 6.38E+07 2u: 3.41E-02 ir: 1.49E-14 iu: 7.31E-04 rsn: itol_upd
 Step     81 Time=  3.45000E+00 Dt=  5.00000E-02 [y] snes_conv_reason:   11
  newton =   1 [      87] linear =   123 [     10006] cuts =  0 [   0]
  --> max chng: dpmx=   7.3102E-04 dtmpmx=   5.2262E-05

== TH FLOW =====================================================================
  0 2r: 1.24E-09 2x: 0.00E+00 2u: 0.00E+00 ir: 1.74E-10 iu: 0.00E+00 rsn:   0
  1 2r: 6.64E-14 2x: 6.38E+07 2u: 3.62E-02 ir: 3.02E-15 iu: 7.63E-04 rsn: itol_upd
 Step     82 Time=  3.50000E+00 Dt=  5.00000E-02 [y] snes_conv_reason:   11
  newton =   1 [      88] linear =   109 [     10115] cuts =  0 [   0]
  --> max chng: dpmx=   7.6324E-04 dtmpmx=   3.1125E-05

== TH FLOW =====================================================================
  0 2r: 1.18E-09 2x: 0.00E+00 2u: 0.00E+00 ir: 1.03E-10 iu: 0.00E+00 rsn:   0
  1 2r: 6.78E-14 2x: 6.38E+07 2u: 3.66E-02 ir: 3.71E-15 iu: 7.65E-04 rsn: itol_upd
 Step     83 Time=  3.55000E+00 Dt=  5.00000E-02 [y] snes_conv_reason:   11
  newton =   1 [      89] linear =   110 [     10225] cuts =  0 [   0]
  --> max chng: dpmx=   7.6533E-04 dtmpmx=   3.0485E-05

== TH FLOW =====================================================================
  0 2r: 1.14E-09 2x: 0.00E+00 2u: 0.00E+00 ir: 1.01E-10 iu: 0.00E+00 rsn:   0
  1 2r: 6.74E-14 2x: 6.38E+07 2u: 3.59E-02 ir: 3.88E-15 iu: 7.47E-04 rsn: itol_upd
 Step     84 Time=  3.60000E+00 Dt=  5.00000E-02 [y] snes_conv_reason:   11
  newton =   1 [      90] linear =   117 [     10342] cuts =  0 [   0]
  --> max chng: dpmx=   7.4727E-04 dtmpmx=   2.9855E-05

== TH FLOW =====================================================================
  0 2r: 1.11E-09 2x: 0.00E+00 2u: 0.00E+00 ir: 9.93E-11 iu: 0.00E+00 rsn:   0
  1 2r: 6.68E-14 2x: 6.38E+07 2u: 3.45E-02 ir: 3.57E-15 iu: 7.16E-04 rsn: itol_upd
 Step     85 Time=  3.65000E+00 Dt=  5.00000E-02 [y] snes_conv_reason:   11
  newton =   1 [      91] linear =   113 [     10455] cuts =  0 [   0]
  --> max chng: dpmx=   7.1559E-04 dtmpmx=   2.9227E-05

== TH FLOW =====================================================================
  0 2r: 1.06E-09 2x: 0.00E+00 2u: 0.00E+00 ir: 9.72E-11 iu: 0.00E+00 rsn:   0
  1 2r: 6.63E-14 2x: 6.38E+07 2u: 3.25E-02 ir: 3.05E-15 iu: 6.75E-04 rsn: itol_upd
 Step     86 Time=  3.70000E+00 Dt=  5.00000E-02 [y] snes_conv_reason:   11
  newton =   1 [      92] linear =   113 [     10568] cuts =  0 [   0]
  --> max chng: dpmx=   6.7541E-04 dtmpmx=   2.8602E-05

== TH FLOW =====================================================================
  0 2r: 1.00E-09 2x: 0.00E+00 2u: 0.00E+00 ir: 9.51E-11 iu: 0.00E+00 rsn:   0
  1 2r: 6.66E-14 2x: 6.38E+07 2u: 3.04E-02 ir: 3.18E-15 iu: 6.30E-04 rsn: itol_upd
 Step     87 Time=  3.75000E+00 Dt=  5.00000E-02 [y] snes_conv_reason:   11
  newton =   1 [      93] linear =   113 [     10681] cuts =  0 [   0]
  --> max chng: dpmx=   6.3012E-04 dtmpmx=   2.7986E-05

== TH FLOW =====================================================================
  0 2r: 9.39E-10 2x: 0.00E+00 2u: 0.00E+00 ir: 9.31E-11 iu: 0.00E+00 rsn:   0
  1 2r: 6.57E-14 2x: 6.38E+07 2u: 2.80E-02 ir: 3.09E-15 iu: 5.82E-04 rsn: itol_upd
 Step     88 Time=  3.80000E+00 Dt=  5.00000E-02 [y] snes_conv_reason:   11
  newton =   1 [      94] linear =   113 [     10794] cuts =  0 [   0]
  --> max chng: dpmx=   5.8215E-04 dtmpmx=   2.7377E-05

== TH FLOW =====================================================================
  0 2r: 8.72E-10 2x: 0.00E+00 2u: 0.00E+00 ir: 9.10E-11 iu: 0.00E+00 rsn:   0
  1 2r: 6.59E-14 2x: 6.38E+07 2u: 2.56E-02 ir: 3.01E-15 iu: 5.33E-04 rsn: itol_upd
 Step     89 Time=  3.85000E+00 Dt=  5.00000E-02 [y] snes_conv_reason:   11
  newton =   1 [      95] linear =   109 [     10903] cuts =  0 [   0]
  --> max chng: dpmx=   5.3329E-04 dtmpmx=   2.6766E-05

== TH FLOW =====================================================================
  0 2r: 8.02E-10 2x: 0.00E+00 2u: 0.00E+00 ir: 8.90E-11 iu: 0.00E+00 rsn:   0
  1 2r: 6.72E-14 2x: 6.38E+07 2u: 2.33E-02 ir: 3.12E-15 iu: 4.85E-04 rsn: itol_upd
 Step     90 Time=  3.90000E+00 Dt=  5.00000E-02 [y] snes_conv_reason:   11
  newton =   1 [      96] linear =   114 [     11017] cuts =  0 [   0]
  --> max chng: dpmx=   4.8468E-04 dtmpmx=   2.5840E-05

== TH FLOW =====================================================================
  0 2r: 7.33E-10 2x: 0.00E+00 2u: 0.00E+00 ir: 8.59E-11 iu: 0.00E+00 rsn:   0
  1 2r: 6.72E-14 2x: 6.38E+07 2u: 2.09E-02 ir: 3.37E-15 iu: 4.37E-04 rsn: itol_upd
 Step     91 Time=  3.95000E+00 Dt=  5.00000E-02 [y] snes_conv_reason:   11
  newton =   1 [      97] linear =   115 [     11132] cuts =  0 [   0]
  --> max chng: dpmx=   4.3718E-04 dtmpmx=   2.4619E-05

== TH FLOW =====================================================================
  0 2r: 6.64E-10 2x: 0.00E+00 2u: 0.00E+00 ir: 8.19E-11 iu: 0.00E+00 rsn:   0
  1 2r: 6.58E-14 2x: 6.38E+07 2u: 1.87E-02 ir: 3.07E-15 iu: 3.91E-04 rsn: itol_upd
 Step     92 Time=  4.00000E+00 Dt=  5.00000E-02 [y] snes_conv_reason:   11
  newton =   1 [      98] linear =   113 [     11245] cuts =  0 [   0]
  --> max chng: dpmx=   3.9147E-04 dtmpmx=   2.3149E-05

== TH FLOW =====================================================================
  0 2r: 5.98E-10 2x: 0.00E+00 2u: 0.00E+00 ir: 7.70E-11 iu: 0.00E+00 rsn:   0
  1 2r: 6.55E-14 2x: 6.38E+07 2u: 1.66E-02 ir: 3.03E-15 iu: 3.48E-04 rsn: itol_upd
 Step     93 Time=  4.05000E+00 Dt=  5.00000E-02 [y] snes_conv_reason:   11
  newton =   1 [      99] linear =   113 [     11358] cuts =  0 [   0]
  --> max chng: dpmx=   3.4799E-04 dtmpmx=   2.1531E-05

== TH FLOW =====================================================================
  0 2r: 5.35E-10 2x: 0.00E+00 2u: 0.00E+00 ir: 7.16E-11 iu: 0.00E+00 rsn:   0
  1 2r: 6.67E-14 2x: 6.38E+07 2u: 1.46E-02 ir: 3.62E-15 iu: 3.07E-04 rsn: itol_upd
 Step     94 Time=  4.10000E+00 Dt=  5.00000E-02 [y] snes_conv_reason:   11
  newton =   1 [     100] linear =   112 [     11470] cuts =  0 [   0]
  --> max chng: dpmx=   3.0724E-04 dtmpmx=   1.9833E-05

== TH FLOW =====================================================================
  0 2r: 4.76E-10 2x: 0.00E+00 2u: 0.00E+00 ir: 6.59E-11 iu: 0.00E+00 rsn:   0
  1 2r: 6.50E-14 2x: 6.38E+07 2u: 1.28E-02 ir: 3.41E-15 iu: 2.69E-04 rsn: itol_upd
 Step     95 Time=  4.15000E+00 Dt=  5.00000E-02 [y] snes_conv_reason:   11
  newton =   1 [     101] linear =   115 [     11585] cuts =  0 [   0]
  --> max chng: dpmx=   2.6917E-04 dtmpmx=   1.8106E-05

== TH FLOW =====================================================================
  0 2r: 4.20E-10 2x: 0.00E+00 2u: 0.00E+00 ir: 6.02E-11 iu: 0.00E+00 rsn:   0
  1 2r: 6.57E-14 2x: 6.38E+07 2u: 1.11E-02 ir: 3.27E-15 iu: 2.34E-04 rsn: itol_upd
 Step     96 Time=  4.20000E+00 Dt=  5.00000E-02 [y] snes_conv_reason:   11
  newton =   1 [     102] linear =   114 [     11699] cuts =  0 [   0]
  --> max chng: dpmx=   2.3425E-04 dtmpmx=   1.6389E-05

== TH FLOW =====================================================================
  0 2r: 3.68E-10 2x: 0.00E+00 2u: 0.00E+00 ir: 5.45E-11 iu: 0.00E+00 rsn:   0
  1 2r: 6.61E-14 2x: 6.38E+07 2u: 9.56E-03 ir: 3.10E-15 iu: 2.02E-04 rsn: itol_upd
 Step     97 Time=  4.25000E+00 Dt=  5.00000E-02 [y] snes_conv_reason:   11
  newton =   1 [     103] linear =   116 [     11815] cuts =  0 [   0]
  --> max chng: dpmx=   2.0234E-04 dtmpmx=   1.4712E-05

== TH FLOW =====================================================================
  0 2r: 3.20E-10 2x: 0.00E+00 2u: 0.00E+00 ir: 4.89E-11 iu: 0.00E+00 rsn:   0
  1 2r: 6.61E-14 2x: 6.38E+07 2u: 8.18E-03 ir: 3.75E-15 iu: 1.74E-04 rsn: itol_upd
 Step     98 Time=  4.30000E+00 Dt=  5.00000E-02 [y] snes_conv_reason:   11
  newton =   1 [     104] linear =   111 [     11926] cuts =  0 [   0]
  --> max chng: dpmx=   1.7354E-04 dtmpmx=   1.3099E-05

== TH FLOW =====================================================================
  0 2r: 2.77E-10 2x: 0.00E+00 2u: 0.00E+00 ir: 4.36E-11 iu: 0.00E+00 rsn:   0
  1 2r: 6.57E-14 2x: 6.38E+07 2u: 6.95E-03 ir: 3.38E-15 iu: 1.48E-04 rsn: itol_upd
 Step     99 Time=  4.35000E+00 Dt=  5.00000E-02 [y] snes_conv_reason:   11
  newton =   1 [     105] linear =   118 [     12044] cuts =  0 [   0]
  --> max chng: dpmx=   1.4769E-04 dtmpmx=   1.1569E-05

== TH FLOW =====================================================================
  0 2r: 2.38E-10 2x: 0.00E+00 2u: 0.00E+00 ir: 3.85E-11 iu: 0.00E+00 rsn:   0
  1 2r: 6.62E-14 2x: 6.38E+07 2u: 5.86E-03 ir: 3.06E-15 iu: 1.25E-04 rsn: itol_upd
 Step    100 Time=  4.40000E+00 Dt=  5.00000E-02 [y] snes_conv_reason:   11
  newton =   1 [     106] linear =   116 [     12160] cuts =  0 [   0]
  --> max chng: dpmx=   1.2479E-04 dtmpmx=   1.0134E-05

== TH FLOW =====================================================================
  0 2r: 2.03E-10 2x: 0.00E+00 2u: 0.00E+00 ir: 3.37E-11 iu: 0.00E+00 rsn:   0
  1 2r: 6.60E-14 2x: 6.38E+07 2u: 4.90E-03 ir: 3.32E-15 iu: 1.05E-04 rsn: itol_upd
 Step    101 Time=  4.45000E+00 Dt=  5.00000E-02 [y] snes_conv_reason:   11
  newton =   1 [     107] linear =   118 [     12278] cuts =  0 [   0]
  --> max chng: dpmx=   1.0467E-04 dtmpmx=   8.8058E-06

== TH FLOW =====================================================================
  0 2r: 1.72E-10 2x: 0.00E+00 2u: 0.00E+00 ir: 2.93E-11 iu: 0.00E+00 rsn:   0
  1 2r: 6.53E-14 2x: 6.38E+07 2u: 4.07E-03 ir: 3.34E-15 iu: 8.71E-05 rsn: itol_upd
 Step    102 Time=  4.50000E+00 Dt=  5.00000E-02 [y] snes_conv_reason:   11
  newton =   1 [     108] linear =   115 [     12393] cuts =  0 [   0]
  --> max chng: dpmx=   8.7097E-05 dtmpmx=   7.5891E-06

== TH FLOW =====================================================================
  0 2r: 1.44E-10 2x: 0.00E+00 2u: 0.00E+00 ir: 2.52E-11 iu: 0.00E+00 rsn:   0
  1 2r: 6.69E-14 2x: 6.38E+07 2u: 3.35E-03 ir: 3.23E-15 iu: 7.19E-05 rsn: itol_upd
 Step    103 Time=  4.55000E+00 Dt=  5.00000E-02 [y] snes_conv_reason:   11
  newton =   1 [     109] linear =   114 [     12507] cuts =  0 [   0]
  --> max chng: dpmx=   7.1941E-05 dtmpmx=   6.4870E-06

== TH FLOW =====================================================================
  0 2r: 1.20E-10 2x: 0.00E+00 2u: 0.00E+00 ir: 2.16E-11 iu: 0.00E+00 rsn:   0
  1 2r: 6.55E-14 2x: 6.38E+07 2u: 2.74E-03 ir: 3.13E-15 iu: 5.90E-05 rsn: itol_upd
 Step    104 Time=  4.60000E+00 Dt=  5.00000E-02 [y] snes_conv_reason:   11
  newton =   1 [     110] linear =   118 [     12625] cuts =  0 [   0]
  --> max chng: dpmx=   5.8951E-05 dtmpmx=   5.4996E-06

== TH FLOW =====================================================================
  0 2r: 9.95E-11 2x: 0.00E+00 2u: 0.00E+00 ir: 1.83E-11 iu: 0.00E+00 rsn:   0
  1 2r: 6.64E-14 2x: 6.38E+07 2u: 2.22E-03 ir: 3.48E-15 iu: 4.79E-05 rsn: itol_upd
 Step    105 Time=  4.65000E+00 Dt=  5.00000E-02 [y] snes_conv_reason:   11
  newton =   1 [     111] linear =   117 [     12742] cuts =  0 [   0]
  --> max chng: dpmx=   4.7930E-05 dtmpmx=   4.6240E-06

== TH FLOW =====================================================================
  0 2r: 8.17E-11 2x: 0.00E+00 2u: 0.00E+00 ir: 1.54E-11 iu: 0.00E+00 rsn:   0
  1 2r: 6.60E-14 2x: 6.38E+07 2u: 1.78E-03 ir: 3.51E-15 iu: 3.86E-05 rsn: itol_upd
 Step    106 Time=  4.70000E+00 Dt=  5.00000E-02 [y] snes_conv_reason:   11
  newton =   1 [     112] linear =   118 [     12860] cuts =  0 [   0]
  --> max chng: dpmx=   3.8649E-05 dtmpmx=   3.8555E-06

== TH FLOW =====================================================================
  0 2r: 6.65E-11 2x: 0.00E+00 2u: 0.00E+00 ir: 1.28E-11 iu: 0.00E+00 rsn:   0
  1 2r: 6.60E-14 2x: 6.38E+07 2u: 1.42E-03 ir: 3.25E-15 iu: 3.09E-05 rsn: itol_upd
 Step    107 Time=  4.75000E+00 Dt=  5.00000E-02 [y] snes_conv_reason:   11
  newton =   1 [     113] linear =   121 [     12981] cuts =  0 [   0]
  --> max chng: dpmx=   3.0924E-05 dtmpmx=   3.1879E-06

== TH FLOW =====================================================================
  0 2r: 5.38E-11 2x: 0.00E+00 2u: 0.00E+00 ir: 1.06E-11 iu: 0.00E+00 rsn:   0
  1 2r: 6.58E-14 2x: 6.38E+07 2u: 1.12E-03 ir: 3.34E-15 iu: 2.45E-05 rsn: itol_upd
 Step    108 Time=  4.80000E+00 Dt=  5.00000E-02 [y] snes_conv_reason:   11
  newton =   1 [     114] linear =   120 [     13101] cuts =  0 [   0]
  --> max chng: dpmx=   2.4525E-05 dtmpmx=   2.6135E-06

== TH FLOW =====================================================================
  0 2r: 4.31E-11 2x: 0.00E+00 2u: 0.00E+00 ir: 8.69E-12 iu: 0.00E+00 rsn:   0
  1 2r: 6.70E-14 2x: 6.38E+07 2u: 8.77E-04 ir: 3.30E-15 iu: 1.93E-05 rsn: itol_upd
 Step    109 Time=  4.85000E+00 Dt=  5.00000E-02 [y] snes_conv_reason:   11
  newton =   1 [     115] linear =   121 [     13222] cuts =  0 [   0]
  --> max chng: dpmx=   1.9288E-05 dtmpmx=   2.1243E-06

== TH FLOW =====================================================================
  0 2r: 3.43E-11 2x: 0.00E+00 2u: 0.00E+00 ir: 7.06E-12 iu: 0.00E+00 rsn:   0
  1 2r: 6.72E-14 2x: 6.38E+07 2u: 6.79E-04 ir: 3.28E-15 iu: 1.50E-05 rsn: itol_upd
 Step    110 Time=  4.90000E+00 Dt=  5.00000E-02 [y] snes_conv_reason:   11
  newton =   1 [     116] linear =   117 [     13339] cuts =  0 [   0]
  --> max chng: dpmx=   1.5026E-05 dtmpmx=   1.7117E-06

== TH FLOW =====================================================================
  0 2r: 2.70E-11 2x: 0.00E+00 2u: 0.00E+00 ir: 5.69E-12 iu: 0.00E+00 rsn:   0
  1 2r: 6.66E-14 2x: 6.38E+07 2u: 5.20E-04 ir: 3.42E-15 iu: 1.16E-05 rsn: itol_upd
 Step    111 Time=  4.95000E+00 Dt=  5.00000E-02 [y] snes_conv_reason:   11
  newton =   1 [     117] linear =   121 [     13460] cuts =  0 [   0]
  --> max chng: dpmx=   1.1597E-05 dtmpmx=   1.3668E-06

== TH FLOW =====================================================================
  0 2r: 2.11E-11 2x: 0.00E+00 2u: 0.00E+00 ir: 4.54E-12 iu: 0.00E+00 rsn:   0
  1 2r: 6.53E-14 2x: 6.38E+07 2u: 3.94E-04 ir: 3.43E-15 iu: 8.86E-06 rsn: itol_upd
 Step    112 Time=  5.00000E+00 Dt=  5.00000E-02 [y] snes_conv_reason:   11
  newton =   1 [     118] linear =   119 [     13579] cuts =  0 [   0]
  --> max chng: dpmx=   8.8607E-06 dtmpmx=   1.0814E-06

== TH FLOW =====================================================================
  0 2r: 1.63E-11 2x: 0.00E+00 2u: 0.00E+00 ir: 3.60E-12 iu: 0.00E+00 rsn:   0
  1 2r: 6.68E-14 2x: 6.38E+07 2u: 2.94E-04 ir: 2.99E-15 iu: 6.69E-06 rsn: itol_upd
 Step    113 Time=  5.05000E+00 Dt=  5.00000E-02 [y] snes_conv_reason:   11
  newton =   1 [     119] linear =   121 [     13700] cuts =  0 [   0]
  --> max chng: dpmx=   6.6942E-06 dtmpmx=   8.4751E-07

== TH FLOW =====================================================================
  0 2r: 1.25E-11 2x: 0.00E+00 2u: 0.00E+00 ir: 2.82E-12 iu: 0.00E+00 rsn:   0
  1 2r: 6.47E-14 2x: 6.38E+07 2u: 2.17E-04 ir: 3.76E-15 iu: 5.00E-06 rsn: itol_upd
 Step    114 Time=  5.10000E+00 Dt=  5.00000E-02 [y] snes_conv_reason:   11
  newton =   1 [     120] linear =   121 [     13821] cuts =  0 [   0]
  --> max chng: dpmx=   4.9998E-06 dtmpmx=   6.5753E-07

== TH FLOW =====================================================================
  0 2r: 9.46E-12 2x: 0.00E+00 2u: 0.00E+00 ir: 2.19E-12 iu: 0.00E+00 rsn:   0
  1 2r: 6.64E-14 2x: 6.38E+07 2u: 1.57E-04 ir: 3.18E-15 iu: 3.68E-06 rsn: itol_upd
 Step    115 Time=  5.15000E+00 Dt=  5.00000E-02 [y] snes_conv_reason:   11
  newton =   1 [     121] linear =   122 [     13943] cuts =  0 [   0]
  --> max chng: dpmx=   3.6830E-06 dtmpmx=   5.0462E-07

== TH FLOW =====================================================================
  0 2r: 7.08E-12 2x: 0.00E+00 2u: 0.00E+00 ir: 1.68E-12 iu: 0.00E+00 rsn:   0
  1 2r: 6.59E-14 2x: 6.38E+07 2u: 1.11E-04 ir: 3.11E-15 iu: 2.67E-06 rsn: itol_upd
 Step    116 Time=  5.20000E+00 Dt=  5.00000E-02 [y] snes_conv_reason:   11
  newton =   1 [     122] linear =   124 [     14067] cuts =  0 [   0]
  --> max chng: dpmx=   2.6718E-06 dtmpmx=   3.8278E-07

== TH FLOW =====================================================================
  0 2r: 5.23E-12 2x: 0.00E+00 2u: 0.00E+00 ir: 1.27E-12 iu: 0.00E+00 rsn:   0
  1 2r: 6.71E-14 2x: 6.38E+07 2u: 7.62E-05 ir: 3.57E-15 iu: 1.90E-06 rsn: itol_upd
 Step    117 Time=  5.25000E+00 Dt=  5.00000E-02 [y] snes_conv_reason:   11
  newton =   1 [     123] linear =   127 [     14194] cuts =  0 [   0]
  --> max chng: dpmx=   1.9048E-06 dtmpmx=   2.8669E-07

== TH FLOW =====================================================================
  0 2r: 3.81E-12 2x: 0.00E+00 2u: 0.00E+00 ir: 9.54E-13 iu: 0.00E+00 rsn:   0
  1 2r: 6.56E-14 2x: 6.38E+07 2u: 5.05E-05 ir: 3.26E-15 iu: 1.33E-06 rsn: itol_upd
 Step    118 Time=  5.30000E+00 Dt=  5.00000E-02 [y] snes_conv_reason:   11
  newton =   1 [     124] linear =   125 [     14319] cuts =  0 [   0]
  --> max chng: dpmx=   1.3299E-06 dtmpmx=   2.1158E-07

== TH FLOW =====================================================================
  0 2r: 2.73E-12 2x: 0.00E+00 2u: 0.00E+00 ir: 7.03E-13 iu: 0.00E+00 rsn:   0
  1 2r: 6.61E-14 2x: 6.38E+07 2u: 3.18E-05 ir: 3.07E-15 iu: 9.05E-07 rsn: itol_upd
 Step    119 Time=  5.35000E+00 Dt=  5.00000E-02 [y] snes_conv_reason:   11
  newton =   1 [     125] linear =   124 [     14443] cuts =  0 [   0]
  --> max chng: dpmx=   9.0501E-07 dtmpmx=   1.5339E-07

== TH FLOW =====================================================================
  0 2r: 1.92E-12 2x: 0.00E+00 2u: 0.00E+00 ir: 5.10E-13 iu: 0.00E+00 rsn:   0
  1 2r: 6.63E-14 2x: 6.38E+07 2u: 1.86E-05 ir: 3.48E-15 iu: 5.96E-07 rsn: itol_upd
 Step    120 Time=  5.40000E+00 Dt=  5.00000E-02 [y] snes_conv_reason:   11
  newton =   1 [     126] linear =   126 [     14569] cuts =  0 [   0]
  --> max chng: dpmx=   5.9605E-07 dtmpmx=   1.0886E-07

== TH FLOW =====================================================================
  0 2r: 1.33E-12 2x: 0.00E+00 2u: 0.00E+00 ir: 3.63E-13 iu: 0.00E+00 rsn:   0
  1 2r: 6.62E-14 2x: 6.38E+07 2u: 1.02E-05 ir: 3.15E-15 iu: 3.77E-07 rsn: itol_upd
 Step    121 Time=  5.45000E+00 Dt=  5.00000E-02 [y] snes_conv_reason:   11
  newton =   1 [     127] linear =   124 [     14693] cuts =  0 [   0]
  --> max chng: dpmx=   3.7730E-07 dtmpmx=   7.5235E-08

== TH FLOW =====================================================================
  0 2r: 9.11E-13 2x: 0.00E+00 2u: 0.00E+00 ir: 2.50E-13 iu: 0.00E+00 rsn:   0
  1 2r: 6.72E-14 2x: 6.38E+07 2u: 6.81E-06 ir: 2.95E-15 iu: 2.26E-07 rsn: itol_upd
 Step    122 Time=  5.50000E+00 Dt=  5.00000E-02 [y] snes_conv_reason:   11
  newton =   1 [     128] linear =   123 [     14816] cuts =  0 [   0]
  --> max chng: dpmx=   2.2596E-07 dtmpmx=   5.0005E-08

== TH FLOW =====================================================================
  0 2r: 6.32E-13 2x: 0.00E+00 2u: 0.00E+00 ir: 1.67E-13 iu: 0.00E+00 rsn:   0
  1 2r: 6.73E-14 2x: 6.38E+07 2u: 7.46E-06 ir: 3.41E-15 iu: 1.60E-07 rsn: itol_upd
 Step    123 Time=  5.55000E+00 Dt=  5.00000E-02 [y] snes_conv_reason:   11
  newton =   1 [     129] linear =   121 [     14937] cuts =  0 [   0]
  --> max chng: dpmx=   1.5972E-07 dtmpmx=   3.1487E-08

== TH FLOW =====================================================================
  0 2r: 4.64E-13 2x: 0.00E+00 2u: 0.00E+00 ir: 1.04E-13 iu: 0.00E+00 rsn:   0
  1 2r: 6.69E-14 2x: 6.38E+07 2u: 8.95E-06 ir: 3.07E-15 iu: 1.95E-07 rsn: itol_upd
 Step    124 Time=  5.60000E+00 Dt=  5.00000E-02 [y] snes_conv_reason:   11
  newton =   1 [     130] linear =   121 [     15058] cuts =  0 [   0]
  --> max chng: dpmx=   1.9465E-07 dtmpmx=   1.7978E-08

== TH FLOW =====================================================================
  0 2r: 3.81E-13 2x: 0.00E+00 2u: 0.00E+00 ir: 5.99E-14 iu: 0.00E+00 rsn:   0
  1 2r: 6.69E-14 2x: 6.38E+07 2u: 9.96E-06 ir: 3.51E-15 iu: 2.13E-07 rsn: itol_upd
 Step    125 Time=  5.65000E+00 Dt=  5.00000E-02 [y] snes_conv_reason:   11
  newton =   1 [     131] linear =   120 [     15178] cuts =  0 [   0]
  --> max chng: dpmx=   2.1304E-07 dtmpmx=   1.0324E-08

== TH FLOW =====================================================================
  0 2r: 3.48E-13 2x: 0.00E+00 2u: 0.00E+00 ir: 3.56E-14 iu: 0.00E+00 rsn:   0
  1 2r: 6.55E-14 2x: 6.38E+07 2u: 1.04E-05 ir: 3.67E-15 iu: 2.19E-07 rsn: itol_upd
 Step    126 Time=  5.70000E+00 Dt=  5.00000E-02 [y] snes_conv_reason:   11
  newton =   1 [     132] linear =   117 [     15295] cuts =  0 [   0]
  --> max chng: dpmx=   2.1933E-07 dtmpmx=   1.0073E-08

== TH FLOW =====================================================================
  0 2r: 3.35E-13 2x: 0.00E+00 2u: 0.00E+00 ir: 3.45E-14 iu: 0.00E+00 rsn:   0
  1 2r: 6.66E-14 2x: 6.38E+07 2u: 1.03E-05 ir: 3.55E-15 iu: 2.16E-07 rsn: itol_upd
 Step    127 Time=  5.75000E+00 Dt=  5.00000E-02 [y] snes_conv_reason:   11
  newton =   1 [     133] linear =   113 [     15408] cuts =  0 [   0]
  --> max chng: dpmx=   2.1642E-07 dtmpmx=   9.7268E-09

== TH FLOW =====================================================================
  0 2r: 3.26E-13 2x: 0.00E+00 2u: 0.00E+00 ir: 3.37E-14 iu: 0.00E+00 rsn:   0
  1 2r: 6.56E-14 2x: 6.38E+07 2u: 9.94E-06 ir: 3.18E-15 iu: 2.07E-07 rsn: itol_upd
 Step    128 Time=  5.80000E+00 Dt=  5.00000E-02 [y] snes_conv_reason:   11
  newton =   1 [     134] linear =   113 [     15521] cuts =  0 [   0]
  --> max chng: dpmx=   2.0745E-07 dtmpmx=   9.4648E-09

== TH FLOW =====================================================================
  0 2r: 3.13E-13 2x: 0.00E+00 2u: 0.00E+00 ir: 3.26E-14 iu: 0.00E+00 rsn:   0
  1 2r: 6.55E-14 2x: 6.38E+07 2u: 9.34E-06 ir: 3.23E-15 iu: 1.94E-07 rsn: itol_upd
 Step    129 Time=  5.85000E+00 Dt=  5.00000E-02 [y] snes_conv_reason:   11
  newton =   1 [     135] linear =   108 [     15629] cuts =  0 [   0]
  --> max chng: dpmx=   1.9441E-07 dtmpmx=   9.1649E-09

== TH FLOW =====================================================================
  0 2r: 2.97E-13 2x: 0.00E+00 2u: 0.00E+00 ir: 3.20E-14 iu: 0.00E+00 rsn:   0
  1 2r: 6.65E-14 2x: 6.38E+07 2u: 8.61E-06 ir: 3.39E-15 iu: 1.79E-07 rsn: itol_upd
 Step    130 Time=  5.90000E+00 Dt=  5.00000E-02 [y] snes_conv_reason:   11
  newton =   1 [     136] linear =   109 [     15738] cuts =  0 [   0]
  --> max chng: dpmx=   1.7905E-07 dtmpmx=   8.9264E-09

== TH FLOW =====================================================================
  0 2r: 2.77E-13 2x: 0.00E+00 2u: 0.00E+00 ir: 3.21E-14 iu: 0.00E+00 rsn:   0
  1 2r: 6.68E-14 2x: 6.38E+07 2u: 7.82E-06 ir: 3.51E-15 iu: 1.63E-07 rsn: itol_upd
 Step    131 Time=  5.95000E+00 Dt=  5.00000E-02 [y] snes_conv_reason:   11
  newton =   1 [     137] linear =   109 [     15847] cuts =  0 [   0]
  --> max chng: dpmx=   1.6275E-07 dtmpmx=   8.6788E-09

== TH FLOW =====================================================================
  0 2r: 2.56E-13 2x: 0.00E+00 2u: 0.00E+00 ir: 3.02E-14 iu: 0.00E+00 rsn:   0
  1 2r: 6.71E-14 2x: 6.38E+07 2u: 7.01E-06 ir: 3.47E-15 iu: 1.46E-07 rsn: itol_upd
 Step    132 Time=  6.00000E+00 Dt=  5.00000E-02 [y] snes_conv_reason:   11
  newton =   1 [     138] linear =   113 [     15960] cuts =  0 [   0]
  --> max chng: dpmx=   1.4587E-07 dtmpmx=   8.4128E-09

== TH FLOW =====================================================================
  0 2r: 2.33E-13 2x: 0.00E+00 2u: 0.00E+00 ir: 2.91E-14 iu: 0.00E+00 rsn:   0
  1 2r: 6.66E-14 2x: 6.38E+07 2u: 6.23E-06 ir: 3.97E-15 iu: 1.30E-07 rsn: itol_upd
 Step    133 Time=  6.05000E+00 Dt=  5.00000E-02 [y] snes_conv_reason:   11
  newton =   1 [     139] linear =   114 [     16074] cuts =  0 [   0]
  --> max chng: dpmx=   1.2969E-07 dtmpmx=   7.9650E-09

== TH FLOW =====================================================================
  0 2r: 2.11E-13 2x: 0.00E+00 2u: 0.00E+00 ir: 2.78E-14 iu: 0.00E+00 rsn:   0
  1 2r: 6.60E-14 2x: 6.38E+07 2u: 5.49E-06 ir: 3.30E-15 iu: 1.14E-07 rsn: itol_upd
 Step    134 Time=  6.10000E+00 Dt=  5.00000E-02 [y] snes_conv_reason:   11
  newton =   1 [     140] linear =   114 [     16188] cuts =  0 [   0]
  --> max chng: dpmx=   1.1444E-07 dtmpmx=   7.4452E-09

== TH FLOW =====================================================================
  0 2r: 1.89E-13 2x: 0.00E+00 2u: 0.00E+00 ir: 2.57E-14 iu: 0.00E+00 rsn:   0
  1 2r: 6.67E-14 2x: 6.38E+07 2u: 4.78E-06 ir: 3.66E-15 iu: 9.99E-08 rsn: itol_upd
 Step    135 Time=  6.15000E+00 Dt=  5.00000E-02 [y] snes_conv_reason:   11
  newton =   1 [     141] linear =   118 [     16306] cuts =  0 [   0]
  --> max chng: dpmx=   9.9884E-08 dtmpmx=   6.8593E-09

== TH FLOW =====================================================================
  0 2r: 1.70E-13 2x: 0.00E+00 2u: 0.00E+00 ir: 2.31E-14 iu: 0.00E+00 rsn:   0
  1 2r: 6.67E-14 2x: 6.38E+07 2u: 4.15E-06 ir: 3.29E-15 iu: 8.67E-08 rsn: itol_upd
 Step    136 Time=  6.20000E+00 Dt=  5.00000E-02 [y] snes_conv_reason:   11
  newton =   1 [     142] linear =   112 [     16418] cuts =  0 [   0]
  --> max chng: dpmx=   8.6729E-08 dtmpmx=   6.2078E-09

== TH FLOW =====================================================================
  0 2r: 1.52E-13 2x: 0.00E+00 2u: 0.00E+00 ir: 2.15E-14 iu: 0.00E+00 rsn:   0
  1 2r: 6.45E-14 2x: 6.38E+07 2u: 3.57E-06 ir: 3.10E-15 iu: 7.49E-08 rsn: itol_upd
 Step    137 Time=  6.25000E+00 Dt=  5.00000E-02 [y] snes_conv_reason:   11
  newton =   1 [     143] linear =   117 [     16535] cuts =  0 [   0]
  --> max chng: dpmx=   7.4855E-08 dtmpmx=   5.5740E-09

== TH FLOW =====================================================================
  0 2r: 1.34E-13 2x: 0.00E+00 2u: 0.00E+00 ir: 1.95E-14 iu: 0.00E+00 rsn:   0
  1 2r: 6.51E-14 2x: 6.38E+07 2u: 3.05E-06 ir: 3.47E-15 iu: 6.42E-08 rsn: itol_upd
 Step    138 Time=  6.30000E+00 Dt=  5.00000E-02 [y] snes_conv_reason:   11
  newton =   1 [     144] linear =   115 [     16650] cuts =  0 [   0]
  --> max chng: dpmx=   6.4145E-08 dtmpmx=   4.9025E-09

== TH FLOW =====================================================================
  0 2r: 1.21E-13 2x: 0.00E+00 2u: 0.00E+00 ir: 1.74E-14 iu: 0.00E+00 rsn:   0
  1 2r: 6.56E-14 2x: 6.38E+07 2u: 2.59E-06 ir: 3.70E-15 iu: 5.46E-08 rsn: itol_upd
 Step    139 Time=  6.35000E+00 Dt=  5.00000E-02 [y] snes_conv_reason:   11
  newton =   1 [     145] linear =   119 [     16769] cuts =  0 [   0]
  --> max chng: dpmx=   5.4599E-08 dtmpmx=   4.3206E-09

== TH FLOW =====================================================================
  0 2r: 1.08E-13 2x: 0.00E+00 2u: 0.00E+00 ir: 1.54E-14 iu: 0.00E+00 rsn:   0
  1 2r: 6.70E-14 2x: 6.38E+07 2u: 2.19E-06 ir: 3.12E-15 iu: 4.63E-08 rsn: itol_upd
 Step    140 Time=  6.40000E+00 Dt=  5.00000E-02 [y] snes_conv_reason:   11
  newton =   1 [     146] linear =   117 [     16886] cuts =  0 [   0]
  --> max chng: dpmx=   4.6333E-08 dtmpmx=   3.7979E-09

== TH FLOW =====================================================================
  0 2r: 9.88E-14 2x: 0.00E+00 2u: 0.00E+00 ir: 1.34E-14 iu: 0.00E+00 rsn:   0
  1 2r: 6.50E-14 2x: 6.38E+07 2u: 1.85E-06 ir: 3.93E-15 iu: 3.92E-08 rsn: itol_upd
 Step    141 Time=  6.45000E+00 Dt=  5.00000E-02 [y] snes_conv_reason:   11
  newton =   1 [     147] linear =   120 [     17006] cuts =  0 [   0]
  --> max chng: dpmx=   3.9116E-08 dtmpmx=   3.2754E-09

== TH FLOW =====================================================================
  0 2r: 8.89E-14 2x: 0.00E+00 2u: 0.00E+00 ir: 1.12E-14 iu: 0.00E+00 rsn:   0
  1 2r: 6.58E-14 2x: 6.38E+07 2u: 1.55E-06 ir: 3.38E-15 iu: 3.29E-08 rsn: itol_upd
 Step    142 Time=  6.50000E+00 Dt=  5.00000E-02 [y] snes_conv_reason:   11
  newton =   1 [     148] linear =   120 [     17126] cuts =  0 [   0]
  --> max chng: dpmx=   3.2829E-08 dtmpmx=   2.7991E-09

== TH FLOW =====================================================================
  0 2r: 8.28E-14 2x: 0.00E+00 2u: 0.00E+00 ir: 9.43E-15 iu: 0.00E+00 rsn:   0
  1 2r: 6.55E-14 2x: 6.38E+07 2u: 1.28E-06 ir: 3.32E-15 iu: 2.74E-08 rsn: itol_upd
 Step    143 Time=  6.55000E+00 Dt=  5.00000E-02 [y] snes_conv_reason:   11
  newton =   1 [     149] linear =   119 [     17245] cuts =  0 [   0]
  --> max chng: dpmx=   2.7358E-08 dtmpmx=   2.3507E-09

== TH FLOW =====================================================================
  0 2r: 7.70E-14 2x: 0.00E+00 2u: 0.00E+00 ir: 8.42E-15 iu: 0.00E+00 rsn:   0
  1 2r: 6.68E-14 2x: 6.38E+07 2u: 1.06E-06 ir: 3.73E-15 iu: 2.26E-08 rsn: itol_upd
 Step    144 Time=  6.60000E+00 Dt=  5.00000E-02 [y] snes_conv_reason:   11
  newton =   1 [     150] linear =   120 [     17365] cuts =  0 [   0]
  --> max chng: dpmx=   2.2585E-08 dtmpmx=   2.0234E-09

== TH FLOW =====================================================================
  0 2r: 7.43E-14 2x: 0.00E+00 2u: 0.00E+00 ir: 8.03E-15 iu: 0.00E+00 rsn:   0
  1 2r: 6.68E-14 2x: 6.38E+07 2u: 8.74E-07 ir: 3.40E-15 iu: 1.88E-08 rsn: itol_upd
 Step    145 Time=  6.65000E+00 Dt=  5.00000E-02 [y] snes_conv_reason:   11
  newton =   1 [     151] linear =   119 [     17484] cuts =  0 [   0]
  --> max chng: dpmx=   1.8743E-08 dtmpmx=   1.7193E-09

== TH FLOW =====================================================================
  0 2r: 7.08E-14 2x: 0.00E+00 2u: 0.00E+00 ir: 6.43E-15 iu: 0.00E+00 rsn:   0
  1 2r: 6.47E-14 2x: 6.38E+07 2u: 7.07E-07 ir: 3.13E-15 iu: 1.53E-08 rsn: itol_upd
 Step    146 Time=  6.70000E+00 Dt=  5.00000E-02 [y] snes_conv_reason:   11
  newton =   1 [     152] linear =   119 [     17603] cuts =  0 [   0]
  --> max chng: dpmx=   1.5367E-08 dtmpmx=   1.4442E-09

== TH FLOW =====================================================================
  0 2r: 6.71E-14 2x: 0.00E+00 2u: 0.00E+00 ir: 6.80E-15 iu: 0.00E+00 rsn:   0
  1 2r: 6.62E-14 2x: 6.38E+07 2u: 5.77E-07 ir: 3.31E-15 iu: 1.25E-08 rsn: itol_upd
 Step    147 Time=  6.75000E+00 Dt=  5.00000E-02 [y] snes_conv_reason:   11
  newton =   1 [     153] linear =   120 [     17723] cuts =  0 [   0]
  --> max chng: dpmx=   1.2456E-08 dtmpmx=   1.2417E-09

== TH FLOW =====================================================================
  0 2r: 6.64E-14 2x: 0.00E+00 2u: 0.00E+00 ir: 4.54E-15 iu: 0.00E+00 rsn:   0
  1 2r: 6.63E-14 2x: 6.38E+07 2u: 4.65E-07 ir: 3.43E-15 iu: 1.01E-08 rsn: itol_upd
 Step    148 Time=  6.80000E+00 Dt=  5.00000E-02 [y] snes_conv_reason:   11
  newton =   1 [     154] linear =   120 [     17843] cuts =  0 [   0]
  --> max chng: dpmx=   1.0128E-08 dtmpmx=   9.7787E-10

== TH FLOW =====================================================================
  0 2r: 6.56E-14 2x: 0.00E+00 2u: 0.00E+00 ir: 4.39E-15 iu: 0.00E+00 rsn:   0
  1 2r: 6.55E-14 2x: 6.38E+07 2u: 3.72E-07 ir: 3.62E-15 iu: 8.14E-09 rsn: itol_upd
 Step    149 Time=  6.85000E+00 Dt=  5.00000E-02 [y] snes_conv_reason:   11
  newton =   1 [     155] linear =   120 [     17963] cuts =  0 [   0]
  --> max chng: dpmx=   8.1491E-09 dtmpmx=   8.1858E-10

== TH FLOW =====================================================================
  0 2r: 6.40E-14 2x: 0.00E+00 2u: 0.00E+00 ir: 3.60E-15 iu: 0.00E+00 rsn:   0
  1 2r: 6.76E-14 2x: 6.38E+07 2u: 2.95E-07 ir: 3.29E-15 iu: 6.49E-09 rsn: itol_upd
 Step    150 Time=  6.90000E+00 Dt=  5.00000E-02 [y] snes_conv_reason:   11
  newton =   1 [     156] linear =   119 [     18082] cuts =  0 [   0]
  --> max chng: dpmx=   6.5193E-09 dtmpmx=   6.6669E-10

== TH FLOW =====================================================================
  0 2r: 6.57E-14 2x: 0.00E+00 2u: 0.00E+00 ir: 3.79E-15 iu: 0.00E+00 rsn:   0
  1 2r: 6.66E-14 2x: 6.38E+07 2u: 2.32E-07 ir: 3.18E-15 iu: 5.16E-09 rsn: itol_upd
 Step    151 Time=  6.95000E+00 Dt=  5.00000E-02 [y] snes_conv_reason:   11
  newton =   1 [     157] linear =   120 [     18202] cuts =  0 [   0]
  --> max chng: dpmx=   5.1223E-09 dtmpmx=   5.9160E-10

== TH FLOW =====================================================================
  0 2r: 6.41E-14 2x: 0.00E+00 2u: 0.00E+00 ir: 3.12E-15 iu: 0.00E+00 rsn:   0
  1 2r: 6.59E-14 2x: 6.38E+07 2u: 1.81E-07 ir: 3.71E-15 iu: 4.11E-09 rsn: itol_upd
 Step    152 Time=  7.00000E+00 Dt=  5.00000E-02 [y] snes_conv_reason:   11
  newton =   1 [     158] linear =   121 [     18323] cuts =  0 [   0]
  --> max chng: dpmx=   4.0745E-09 dtmpmx=   4.3896E-10

== TH FLOW =====================================================================
  0 2r: 6.33E-14 2x: 0.00E+00 2u: 0.00E+00 ir: 3.44E-15 iu: 0.00E+00 rsn:   0
  1 2r: 6.57E-14 2x: 6.38E+07 2u: 1.46E-07 ir: 3.30E-15 iu: 3.36E-09 rsn: itol_upd
 Step    153 Time=  7.05000E+00 Dt=  5.00000E-02 [y] snes_conv_reason:   11
  newton =   1 [     159] linear =   135 [     18458] cuts =  0 [   0]
  --> max chng: dpmx=   3.3760E-09 dtmpmx=   3.5772E-10

== TH FLOW =====================================================================
  0 2r: 6.29E-14 2x: 0.00E+00 2u: 0.00E+00 ir: 3.12E-15 iu: 0.00E+00 rsn:   0
  1 2r: 6.68E-14 2x: 6.38E+07 2u: 1.08E-07 ir: 3.52E-15 iu: 2.59E-09 rsn: itol_upd
 Step    154 Time=  7.10000E+00 Dt=  5.00000E-02 [y] snes_conv_reason:   11
  newton =   1 [     160] linear =   123 [     18581] cuts =  0 [   0]
  --> max chng: dpmx=   2.5611E-09 dtmpmx=   2.8834E-10

== TH FLOW =====================================================================
  0 2r: 6.39E-14 2x: 0.00E+00 2u: 0.00E+00 ir: 3.47E-15 iu: 0.00E+00 rsn:   0
  1 2r: 6.69E-14 2x: 6.38E+07 2u: 8.43E-08 ir: 3.77E-15 iu: 2.10E-09 rsn: itol_upd
 Step    155 Time=  7.15000E+00 Dt=  5.00000E-02 [y] snes_conv_reason:   11
  newton =   1 [     161] linear =   115 [     18696] cuts =  0 [   0]
  --> max chng: dpmx=   2.0955E-09 dtmpmx=   2.3570E-10

== TH FLOW =====================================================================
  0 2r: 6.40E-14 2x: 0.00E+00 2u: 0.00E+00 ir: 3.47E-15 iu: 0.00E+00 rsn:   0
  1 2r: 6.60E-14 2x: 6.38E+07 2u: 6.34E-08 ir: 3.12E-15 iu: 1.61E-09 rsn: itol_upd
 Step    156 Time=  7.20000E+00 Dt=  5.00000E-02 [y] snes_conv_reason:   11
  newton =   1 [     162] linear =   125 [     18821] cuts =  0 [   0]
  --> max chng: dpmx=   1.6298E-09 dtmpmx=   1.7428E-10

== TH FLOW =====================================================================
  0 2r: 6.30E-14 2x: 0.00E+00 2u: 0.00E+00 ir: 3.05E-15 iu: 0.00E+00 rsn:   0
  1 2r: 6.55E-14 2x: 6.38E+07 2u: 4.58E-08 ir: 3.29E-15 iu: 1.24E-09 rsn: itol_upd
 Step    157 Time=  7.25000E+00 Dt=  5.00000E-02 [y] snes_conv_reason:   11
  newton =   1 [     163] linear =   118 [     18939] cuts =  0 [   0]
  --> max chng: dpmx=   1.2806E-09 dtmpmx=   1.6155E-10

== TH FLOW =====================================================================
  0 2r: 6.25E-14 2x: 0.00E+00 2u: 0.00E+00 ir: 3.10E-15 iu: 0.00E+00 rsn:   0
  1 2r: 6.61E-14 2x: 6.38E+07 2u: 3.42E-08 ir: 3.10E-15 iu: 9.35E-10 rsn: itol_upd
 Step    158 Time=  7.30000E+00 Dt=  5.00000E-02 [y] snes_conv_reason:   11
  newton =   1 [     164] linear =   120 [     19059] cuts =  0 [   0]
  --> max chng: dpmx=   9.3132E-10 dtmpmx=   1.3013E-10

== TH FLOW =====================================================================
  0 2r: 6.33E-14 2x: 0.00E+00 2u: 0.00E+00 ir: 3.00E-15 iu: 0.00E+00 rsn:   0
  1 2r: 6.58E-14 2x: 6.38E+07 2u: 2.26E-08 ir: 3.63E-15 iu: 7.14E-10 rsn: itol_upd
 Step    159 Time=  7.35000E+00 Dt=  5.00000E-02 [y] snes_conv_reason:   11
  newton =   1 [     165] linear =   125 [     19184] cuts =  0 [   0]
  --> max chng: dpmx=   6.9849E-10 dtmpmx=   1.0909E-10

== TH FLOW =====================================================================
  0 2r: 6.28E-14 2x: 0.00E+00 2u: 0.00E+00 ir: 3.45E-15 iu: 0.00E+00 rsn:   0
  1 2r: 6.66E-14 2x: 6.38E+07 2u: 1.77E-08 ir: 3.18E-15 iu: 6.29E-10 rsn: itol_upd
 Step    160 Time=  7.40000E+00 Dt=  5.00000E-02 [y] snes_conv_reason:   11
  newton =   1 [     166] linear =   118 [     19302] cuts =  0 [   0]
  --> max chng: dpmx=   5.8208E-10 dtmpmx=   9.9387E-11

== TH FLOW =====================================================================
  0 2r: 6.36E-14 2x: 0.00E+00 2u: 0.00E+00 ir: 2.97E-15 iu: 0.00E+00 rsn:   0
  1 2r: 6.64E-14 2x: 6.38E+07 2u: 1.46E-08 ir: 3.38E-15 iu: 5.57E-10 rsn: itol_upd
 Step    161 Time=  7.45000E+00 Dt=  5.00000E-02 [y] snes_conv_reason:   11
  newton =   1 [     167] linear =   118 [     19420] cuts =  0 [   0]
  --> max chng: dpmx=   5.8208E-10 dtmpmx=   9.1340E-11

== TH FLOW =====================================================================
  0 2r: 6.33E-14 2x: 0.00E+00 2u: 0.00E+00 ir: 3.22E-15 iu: 0.00E+00 rsn:   0
  1 2r: 6.60E-14 2x: 6.38E+07 2u: 8.90E-09 ir: 3.53E-15 iu: 4.16E-10 rsn: itol_upd
 Step    162 Time=  7.50000E+00 Dt=  5.00000E-02 [y] snes_conv_reason:   11
  newton =   1 [     168] linear =   113 [     19533] cuts =  0 [   0]
  --> max chng: dpmx=   4.6566E-10 dtmpmx=   9.3968E-11

== TH FLOW =====================================================================
  0 2r: 6.30E-14 2x: 0.00E+00 2u: 0.00E+00 ir: 3.34E-15 iu: 0.00E+00 rsn:   0
  1 2r: 6.53E-14 2x: 6.38E+07 2u: 5.85E-09 ir: 3.65E-15 iu: 2.54E-10 rsn: itol_upd
 Step    163 Time=  7.55000E+00 Dt=  5.00000E-02 [y] snes_conv_reason:   11
  newton =   1 [     169] linear =   102 [     19635] cuts =  0 [   0]
  --> max chng: dpmx=   2.3283E-10 dtmpmx=   1.0150E-10

== TH FLOW =====================================================================
  0 2r: 6.22E-14 2x: 0.00E+00 2u: 0.00E+00 ir: 3.62E-15 iu: 0.00E+00 rsn:   0
[...]
  1 2r: 6.52E-14 2x: 6.38E+07 2u: 5.32E-09 ir: 3.09E-15 iu: 2.78E-10 rsn: itol_upd
 Step    518 Time=  2.53000E+01 Dt=  5.00000E-02 [y] snes_conv_reason:   11
  newton =   1 [     524] linear =    79 [     55074] cuts =  0 [   0]
  --> max chng: dpmx=   2.3283E-10 dtmpmx=   9.5476E-11

== TH FLOW =====================================================================
  0 2r: 6.23E-14 2x: 0.00E+00 2u: 0.00E+00 ir: 3.00E-15 iu: 0.00E+00 rsn:   0
  1 2r: 6.66E-14 2x: 6.38E+07 2u: 5.33E-09 ir: 3.47E-15 iu: 2.73E-10 rsn: itol_upd
 Step    519 Time=  2.53500E+01 Dt=  5.00000E-02 [y] snes_conv_reason:   11
  newton =   1 [     525] linear =    79 [     55153] cuts =  0 [   0]
  --> max chng: dpmx=   2.3283E-10 dtmpmx=   9.6595E-11

== TH FLOW =====================================================================
  0 2r: 6.36E-14 2x: 0.00E+00 2u: 0.00E+00 ir: 3.32E-15 iu: 0.00E+00 rsn:   0
  1 2r: 6.72E-14 2x: 6.38E+07 2u: 5.65E-09 ir: 3.34E-15 iu: 2.78E-10 rsn: itol_upd
 Step    520 Time=  2.54000E+01 Dt=  5.00000E-02 [y] snes_conv_reason:   11
  newton =   1 [     526] linear =   113 [     55266] cuts =  0 [   0]
  --> max chng: dpmx=   2.3283E-10 dtmpmx=   9.1779E-11

== TH FLOW =====================================================================
  0 2r: 6.41E-14 2x: 0.00E+00 2u: 0.00E+00 ir: 3.23E-15 iu: 0.00E+00 rsn:   0
  1 2r: 6.66E-14 2x: 6.38E+07 2u: 5.58E-09 ir: 3.15E-15 iu: 2.91E-10 rsn: itol_upd
 Step    521 Time=  2.54500E+01 Dt=  5.00000E-02 [y] snes_conv_reason:   11
  newton =   1 [     527] linear =   103 [     55369] cuts =  0 [   0]
  --> max chng: dpmx=   3.4925E-10 dtmpmx=   1.0368E-10

== TH FLOW =====================================================================
  0 2r: 6.35E-14 2x: 0.00E+00 2u: 0.00E+00 ir: 2.95E-15 iu: 0.00E+00 rsn:   0
  1 2r: 6.48E-14 2x: 6.38E+07 2u: 5.50E-09 ir: 3.62E-15 iu: 2.82E-10 rsn: itol_upd
 Step    522 Time=  2.55000E+01 Dt=  5.00000E-02 [y] snes_conv_reason:   11
  newton =   1 [     528] linear =   106 [     55475] cuts =  0 [   0]
  --> max chng: dpmx=   2.3283E-10 dtmpmx=   1.0224E-10

== TH FLOW =====================================================================
  0 2r: 6.19E-14 2x: 0.00E+00 2u: 0.00E+00 ir: 3.42E-15 iu: 0.00E+00 rsn:   0
  1 2r: 6.55E-14 2x: 6.38E+07 2u: 6.16E-09 ir: 3.30E-15 iu: 3.15E-10 rsn: itol_upd
 Step    523 Time=  2.55500E+01 Dt=  5.00000E-02 [y] snes_conv_reason:   11
  newton =   1 [     529] linear =   102 [     55577] cuts =  0 [   0]
  --> max chng: dpmx=   3.4925E-10 dtmpmx=   9.4060E-11

== TH FLOW =====================================================================
  0 2r: 6.26E-14 2x: 0.00E+00 2u: 0.00E+00 ir: 3.18E-15 iu: 0.00E+00 rsn:   0
  1 2r: 6.51E-14 2x: 6.38E+07 2u: 5.29E-09 ir: 3.31E-15 iu: 2.77E-10 rsn: itol_upd
 Step    524 Time=  2.56000E+01 Dt=  5.00000E-02 [y] snes_conv_reason:   11
  newton =   1 [     530] linear =    92 [     55669] cuts =  0 [   0]
  --> max chng: dpmx=   2.3283E-10 dtmpmx=   9.4486E-11

== TH FLOW =====================================================================
  0 2r: 6.22E-14 2x: 0.00E+00 2u: 0.00E+00 ir: 3.05E-15 iu: 0.00E+00 rsn:   0
  1 2r: 6.40E-14 2x: 6.38E+07 2u: 7.13E-09 ir: 3.32E-15 iu: 3.40E-10 rsn: itol_upd
 Step    525 Time=  2.56500E+01 Dt=  5.00000E-02 [y] snes_conv_reason:   11
  newton =   1 [     531] linear =   122 [     55791] cuts =  0 [   0]
  --> max chng: dpmx=   3.4925E-10 dtmpmx=   9.3024E-11

== TH FLOW =====================================================================
  0 2r: 6.10E-14 2x: 0.00E+00 2u: 0.00E+00 ir: 3.08E-15 iu: 0.00E+00 rsn:   0
  1 2r: 6.68E-14 2x: 6.38E+07 2u: 5.47E-09 ir: 3.38E-15 iu: 2.79E-10 rsn: itol_upd
 Step    526 Time=  2.57000E+01 Dt=  5.00000E-02 [y] snes_conv_reason:   11
  newton =   1 [     532] linear =   121 [     55912] cuts =  0 [   0]
  --> max chng: dpmx=   2.3283E-10 dtmpmx=   9.1347E-11

== TH FLOW =====================================================================
  0 2r: 6.38E-14 2x: 0.00E+00 2u: 0.00E+00 ir: 3.18E-15 iu: 0.00E+00 rsn:   0
  1 2r: 6.57E-14 2x: 6.38E+07 2u: 5.49E-09 ir: 2.93E-15 iu: 2.74E-10 rsn: itol_upd
 Step    527 Time=  2.57500E+01 Dt=  5.00000E-02 [y] snes_conv_reason:   11
  newton =   1 [     533] linear =    94 [     56006] cuts =  0 [   0]
  --> max chng: dpmx=   2.3283E-10 dtmpmx=   9.1884E-11

== TH FLOW =====================================================================
  0 2r: 6.26E-14 2x: 0.00E+00 2u: 0.00E+00 ir: 2.83E-15 iu: 0.00E+00 rsn:   0
  1 2r: 6.59E-14 2x: 6.38E+07 2u: 5.72E-09 ir: 2.98E-15 iu: 3.02E-10 rsn: itol_upd
 Step    528 Time=  2.58000E+01 Dt=  5.00000E-02 [y] snes_conv_reason:   11
  newton =   1 [     534] linear =   101 [     56107] cuts =  0 [   0]
  --> max chng: dpmx=   3.4925E-10 dtmpmx=   9.7602E-11

== TH FLOW =====================================================================
  0 2r: 6.29E-14 2x: 0.00E+00 2u: 0.00E+00 ir: 2.81E-15 iu: 0.00E+00 rsn:   0
  1 2r: 6.59E-14 2x: 6.38E+07 2u: 5.42E-09 ir: 3.33E-15 iu: 2.57E-10 rsn: itol_upd
 Step    529 Time=  2.58500E+01 Dt=  5.00000E-02 [y] snes_conv_reason:   11
  newton =   1 [     535] linear =   103 [     56210] cuts =  0 [   0]
  --> max chng: dpmx=   2.3283E-10 dtmpmx=   9.3731E-11

== TH FLOW =====================================================================
  0 2r: 6.31E-14 2x: 0.00E+00 2u: 0.00E+00 ir: 3.09E-15 iu: 0.00E+00 rsn:   0
  1 2r: 6.70E-14 2x: 6.38E+07 2u: 5.76E-09 ir: 3.19E-15 iu: 3.17E-10 rsn: itol_upd
 Step    530 Time=  2.59000E+01 Dt=  5.00000E-02 [y] snes_conv_reason:   11
  newton =   1 [     536] linear =    81 [     56291] cuts =  0 [   0]
  --> max chng: dpmx=   3.4925E-10 dtmpmx=   9.7996E-11

== TH FLOW =====================================================================
  0 2r: 6.40E-14 2x: 0.00E+00 2u: 0.00E+00 ir: 3.22E-15 iu: 0.00E+00 rsn:   0
  1 2r: 6.69E-14 2x: 6.38E+07 2u: 5.39E-09 ir: 3.29E-15 iu: 2.84E-10 rsn: itol_upd
 Step    531 Time=  2.59500E+01 Dt=  5.00000E-02 [y] snes_conv_reason:   11
  newton =   1 [     537] linear =   108 [     56399] cuts =  0 [   0]
  --> max chng: dpmx=   2.3283E-10 dtmpmx=   9.8982E-11

== TH FLOW =====================================================================
  0 2r: 6.38E-14 2x: 0.00E+00 2u: 0.00E+00 ir: 3.21E-15 iu: 0.00E+00 rsn:   0
  1 2r: 6.64E-14 2x: 6.38E+07 2u: 5.84E-09 ir: 3.50E-15 iu: 3.23E-10 rsn: itol_upd
 Step    532 Time=  2.60000E+01 Dt=  5.00000E-02 [y] snes_conv_reason:   11
  newton =   1 [     538] linear =   104 [     56503] cuts =  0 [   0]
  --> max chng: dpmx=   3.4925E-10 dtmpmx=   1.0003E-10

== TH FLOW =====================================================================
  0 2r: 6.34E-14 2x: 0.00E+00 2u: 0.00E+00 ir: 3.30E-15 iu: 0.00E+00 rsn:   0
  1 2r: 6.69E-14 2x: 6.38E+07 2u: 5.39E-09 ir: 3.59E-15 iu: 2.79E-10 rsn: itol_upd
 Step    533 Time=  2.60500E+01 Dt=  5.00000E-02 [y] snes_conv_reason:   11
  newton =   1 [     539] linear =   108 [     56611] cuts =  0 [   0]
  --> max chng: dpmx=   2.3283E-10 dtmpmx=   1.0355E-10

== TH FLOW =====================================================================
  0 2r: 6.39E-14 2x: 0.00E+00 2u: 0.00E+00 ir: 3.35E-15 iu: 0.00E+00 rsn:   0
  1 2r: 6.67E-14 2x: 6.38E+07 2u: 6.59E-09 ir: 3.66E-15 iu: 2.88E-10 rsn: itol_upd
 Step    534 Time=  2.61000E+01 Dt=  5.00000E-02 [y] snes_conv_reason:   11
  newton =   1 [     540] linear =   115 [     56726] cuts =  0 [   0]
  --> max chng: dpmx=   2.3283E-10 dtmpmx=   9.2886E-11

== TH FLOW =====================================================================
  0 2r: 6.37E-14 2x: 0.00E+00 2u: 0.00E+00 ir: 3.37E-15 iu: 0.00E+00 rsn:   0
  1 2r: 6.74E-14 2x: 6.38E+07 2u: 5.57E-09 ir: 3.41E-15 iu: 3.23E-10 rsn: itol_upd
 Step    535 Time=  2.61500E+01 Dt=  5.00000E-02 [y] snes_conv_reason:   11
  newton =   1 [     541] linear =    99 [     56825] cuts =  0 [   0]
  --> max chng: dpmx=   3.4925E-10 dtmpmx=   8.9727E-11

== TH FLOW =====================================================================
  0 2r: 6.43E-14 2x: 0.00E+00 2u: 0.00E+00 ir: 3.26E-15 iu: 0.00E+00 rsn:   0
  1 2r: 6.54E-14 2x: 6.38E+07 2u: 6.07E-09 ir: 3.16E-15 iu: 2.72E-10 rsn: itol_upd
 Step    536 Time=  2.62000E+01 Dt=  5.00000E-02 [y] snes_conv_reason:   11
  newton =   1 [     542] linear =    94 [     56919] cuts =  0 [   0]
  --> max chng: dpmx=   2.3283E-10 dtmpmx=   9.5241E-11

== TH FLOW =====================================================================
  0 2r: 6.25E-14 2x: 0.00E+00 2u: 0.00E+00 ir: 2.94E-15 iu: 0.00E+00 rsn:   0
  1 2r: 6.56E-14 2x: 6.38E+07 2u: 5.45E-09 ir: 3.19E-15 iu: 3.22E-10 rsn: itol_upd
 Step    537 Time=  2.62500E+01 Dt=  5.00000E-02 [y] snes_conv_reason:   11
  newton =   1 [     543] linear =    97 [     57016] cuts =  0 [   0]
  --> max chng: dpmx=   3.4925E-10 dtmpmx=   9.7957E-11

== TH FLOW =====================================================================
  0 2r: 6.27E-14 2x: 0.00E+00 2u: 0.00E+00 ir: 3.00E-15 iu: 0.00E+00 rsn:   0
  1 2r: 6.56E-14 2x: 6.38E+07 2u: 5.67E-09 ir: 3.47E-15 iu: 3.37E-10 rsn: itol_upd
 Step    538 Time=  2.63000E+01 Dt=  5.00000E-02 [y] snes_conv_reason:   11
  newton =   1 [     544] linear =   112 [     57128] cuts =  0 [   0]
  --> max chng: dpmx=   3.4925E-10 dtmpmx=   9.6563E-11

== TH FLOW =====================================================================
  0 2r: 6.27E-14 2x: 0.00E+00 2u: 0.00E+00 ir: 3.34E-15 iu: 0.00E+00 rsn:   0
  1 2r: 6.63E-14 2x: 6.38E+07 2u: 6.91E-09 ir: 3.32E-15 iu: 3.43E-10 rsn: itol_upd
 Step    539 Time=  2.63500E+01 Dt=  5.00000E-02 [y] snes_conv_reason:   11
  newton =   1 [     545] linear =   107 [     57235] cuts =  0 [   0]
  --> max chng: dpmx=   3.4925E-10 dtmpmx=   9.4527E-11

== TH FLOW =====================================================================
  0 2r: 6.33E-14 2x: 0.00E+00 2u: 0.00E+00 ir: 3.29E-15 iu: 0.00E+00 rsn:   0
  1 2r: 6.55E-14 2x: 6.38E+07 2u: 5.52E-09 ir: 3.84E-15 iu: 2.53E-10 rsn: itol_upd
 Step    540 Time=  2.64000E+01 Dt=  5.00000E-02 [y] snes_conv_reason:   11
  newton =   1 [     546] linear =   117 [     57352] cuts =  0 [   0]
  --> max chng: dpmx=   2.3283E-10 dtmpmx=   1.0406E-10

== TH FLOW =====================================================================
  0 2r: 6.25E-14 2x: 0.00E+00 2u: 0.00E+00 ir: 3.69E-15 iu: 0.00E+00 rsn:   0
  1 2r: 6.63E-14 2x: 6.38E+07 2u: 5.57E-09 ir: 3.30E-15 iu: 3.03E-10 rsn: itol_upd
 Step    541 Time=  2.64500E+01 Dt=  5.00000E-02 [y] snes_conv_reason:   11
  newton =   1 [     547] linear =    82 [     57434] cuts =  0 [   0]
  --> max chng: dpmx=   3.4925E-10 dtmpmx=   1.0286E-10

== TH FLOW =====================================================================
  0 2r: 6.33E-14 2x: 0.00E+00 2u: 0.00E+00 ir: 3.17E-15 iu: 0.00E+00 rsn:   0
  1 2r: 6.68E-14 2x: 6.38E+07 2u: 5.97E-09 ir: 3.02E-15 iu: 3.10E-10 rsn: itol_upd
 Step    542 Time=  2.65000E+01 Dt=  5.00000E-02 [y] snes_conv_reason:   11
  newton =   1 [     548] linear =    95 [     57529] cuts =  0 [   0]
  --> max chng: dpmx=   3.4925E-10 dtmpmx=   1.1010E-10

== TH FLOW =====================================================================
  0 2r: 6.37E-14 2x: 0.00E+00 2u: 0.00E+00 ir: 2.86E-15 iu: 0.00E+00 rsn:   0
  1 2r: 6.81E-14 2x: 6.38E+07 2u: 5.84E-09 ir: 3.43E-15 iu: 3.04E-10 rsn: itol_upd
 Step    543 Time=  2.65500E+01 Dt=  5.00000E-02 [y] snes_conv_reason:   11
  newton =   1 [     549] linear =   116 [     57645] cuts =  0 [   0]
  --> max chng: dpmx=   3.4925E-10 dtmpmx=   8.5866E-11

== TH FLOW =====================================================================
  0 2r: 6.51E-14 2x: 0.00E+00 2u: 0.00E+00 ir: 3.34E-15 iu: 0.00E+00 rsn:   0
  1 2r: 6.70E-14 2x: 6.38E+07 2u: 5.83E-09 ir: 3.35E-15 iu: 3.15E-10 rsn: itol_upd
 Step    544 Time=  2.66000E+01 Dt=  5.00000E-02 [y] snes_conv_reason:   11
  newton =   1 [     550] linear =   114 [     57759] cuts =  0 [   0]
  --> max chng: dpmx=   3.4925E-10 dtmpmx=   1.0065E-10

== TH FLOW =====================================================================
  0 2r: 6.38E-14 2x: 0.00E+00 2u: 0.00E+00 ir: 3.11E-15 iu: 0.00E+00 rsn:   0
  1 2r: 6.56E-14 2x: 6.38E+07 2u: 5.52E-09 ir: 3.21E-15 iu: 2.66E-10 rsn: itol_upd
 Step    545 Time=  2.66500E+01 Dt=  5.00000E-02 [y] snes_conv_reason:   11
  newton =   1 [     551] linear =   105 [     57864] cuts =  0 [   0]
  --> max chng: dpmx=   2.3283E-10 dtmpmx=   1.1348E-10

== TH FLOW =====================================================================
  0 2r: 6.26E-14 2x: 0.00E+00 2u: 0.00E+00 ir: 3.08E-15 iu: 0.00E+00 rsn:   0
  1 2r: 6.62E-14 2x: 6.38E+07 2u: 5.35E-09 ir: 3.36E-15 iu: 2.86E-10 rsn: itol_upd
 Step    546 Time=  2.67000E+01 Dt=  5.00000E-02 [y] snes_conv_reason:   11
  newton =   1 [     552] linear =    71 [     57935] cuts =  0 [   0]
  --> max chng: dpmx=   2.3283E-10 dtmpmx=   1.0322E-10

== TH FLOW =====================================================================
  0 2r: 6.32E-14 2x: 0.00E+00 2u: 0.00E+00 ir: 3.22E-15 iu: 0.00E+00 rsn:   0
  1 2r: 6.64E-14 2x: 6.38E+07 2u: 8.13E-09 ir: 3.01E-15 iu: 3.52E-10 rsn: itol_upd
 Step    547 Time=  2.67500E+01 Dt=  5.00000E-02 [y] snes_conv_reason:   11
  newton =   1 [     553] linear =   113 [     58048] cuts =  0 [   0]
  --> max chng: dpmx=   3.4925E-10 dtmpmx=   1.0042E-10

== TH FLOW =====================================================================
  0 2r: 6.34E-14 2x: 0.00E+00 2u: 0.00E+00 ir: 2.88E-15 iu: 0.00E+00 rsn:   0
  1 2r: 6.63E-14 2x: 6.38E+07 2u: 5.87E-09 ir: 3.44E-15 iu: 2.67E-10 rsn: itol_upd
 Step    548 Time=  2.68000E+01 Dt=  5.00000E-02 [y] snes_conv_reason:   11
  newton =   1 [     554] linear =   100 [     58148] cuts =  0 [   0]
  --> max chng: dpmx=   2.3283E-10 dtmpmx=   1.0547E-10

== TH FLOW =====================================================================
  0 2r: 6.33E-14 2x: 0.00E+00 2u: 0.00E+00 ir: 3.27E-15 iu: 0.00E+00 rsn:   0
  1 2r: 6.69E-14 2x: 6.38E+07 2u: 6.00E-09 ir: 3.36E-15 iu: 3.54E-10 rsn: itol_upd
 Step    549 Time=  2.68500E+01 Dt=  5.00000E-02 [y] snes_conv_reason:   11
  newton =   1 [     555] linear =   121 [     58269] cuts =  0 [   0]
  --> max chng: dpmx=   3.4925E-10 dtmpmx=   1.0940E-10

== TH FLOW =====================================================================
  0 2r: 6.40E-14 2x: 0.00E+00 2u: 0.00E+00 ir: 3.24E-15 iu: 0.00E+00 rsn:   0
  1 2r: 6.74E-14 2x: 6.38E+07 2u: 5.70E-09 ir: 3.29E-15 iu: 3.06E-10 rsn: itol_upd
 Step    550 Time=  2.69000E+01 Dt=  5.00000E-02 [y] snes_conv_reason:   11
  newton =   1 [     556] linear =    83 [     58352] cuts =  0 [   0]
  --> max chng: dpmx=   3.4925E-10 dtmpmx=   1.1307E-10

== TH FLOW =====================================================================
  0 2r: 6.43E-14 2x: 0.00E+00 2u: 0.00E+00 ir: 2.94E-15 iu: 0.00E+00 rsn:   0
  1 2r: 6.68E-14 2x: 6.38E+07 2u: 5.64E-09 ir: 3.46E-15 iu: 2.83E-10 rsn: itol_upd
 Step    551 Time=  2.69500E+01 Dt=  5.00000E-02 [y] snes_conv_reason:   11
  newton =   1 [     557] linear =    87 [     58439] cuts =  0 [   0]
  --> max chng: dpmx=   2.3283E-10 dtmpmx=   9.3145E-11

== TH FLOW =====================================================================
  0 2r: 6.36E-14 2x: 0.00E+00 2u: 0.00E+00 ir: 3.26E-15 iu: 0.00E+00 rsn:   0
  1 2r: 6.59E-14 2x: 6.38E+07 2u: 5.97E-09 ir: 3.74E-15 iu: 2.64E-10 rsn: itol_upd
 Step    552 Time=  2.70000E+01 Dt=  5.00000E-02 [y] snes_conv_reason:   11
  newton =   1 [     558] linear =   103 [     58542] cuts =  0 [   0]
  --> max chng: dpmx=   2.3283E-10 dtmpmx=   9.3589E-11

== TH FLOW =====================================================================
  0 2r: 6.29E-14 2x: 0.00E+00 2u: 0.00E+00 ir: 3.54E-15 iu: 0.00E+00 rsn:   0
  1 2r: 6.57E-14 2x: 6.38E+07 2u: 5.48E-09 ir: 3.23E-15 iu: 2.47E-10 rsn: itol_upd
 Step    553 Time=  2.70500E+01 Dt=  5.00000E-02 [y] snes_conv_reason:   11
  newton =   1 [     559] linear =    89 [     58631] cuts =  0 [   0]
  --> max chng: dpmx=   2.3283E-10 dtmpmx=   8.7713E-11

== TH FLOW =====================================================================
  0 2r: 6.28E-14 2x: 0.00E+00 2u: 0.00E+00 ir: 3.01E-15 iu: 0.00E+00 rsn:   0
  1 2r: 6.61E-14 2x: 6.38E+07 2u: 5.59E-09 ir: 3.59E-15 iu: 2.83E-10 rsn: itol_upd
 Step    554 Time=  2.71000E+01 Dt=  5.00000E-02 [y] snes_conv_reason:   11
  newton =   1 [     560] linear =   112 [     58743] cuts =  0 [   0]
  --> max chng: dpmx=   2.3283E-10 dtmpmx=   9.2930E-11

== TH FLOW =====================================================================
  0 2r: 6.30E-14 2x: 0.00E+00 2u: 0.00E+00 ir: 3.29E-15 iu: 0.00E+00 rsn:   0
  1 2r: 6.60E-14 2x: 6.38E+07 2u: 5.68E-09 ir: 3.38E-15 iu: 2.44E-10 rsn: itol_upd
 Step    555 Time=  2.71500E+01 Dt=  5.00000E-02 [y] snes_conv_reason:   11
  newton =   1 [     561] linear =    98 [     58841] cuts =  0 [   0]
  --> max chng: dpmx=   2.3283E-10 dtmpmx=   9.0438E-11

== TH FLOW =====================================================================
  0 2r: 6.29E-14 2x: 0.00E+00 2u: 0.00E+00 ir: 3.07E-15 iu: 0.00E+00 rsn:   0
  1 2r: 6.63E-14 2x: 6.38E+07 2u: 5.94E-09 ir: 3.53E-15 iu: 2.86E-10 rsn: itol_upd
 Step    556 Time=  2.72000E+01 Dt=  5.00000E-02 [y] snes_conv_reason:   11
  newton =   1 [     562] linear =   116 [     58957] cuts =  0 [   0]
  --> max chng: dpmx=   2.3283E-10 dtmpmx=   9.2852E-11

== TH FLOW =====================================================================
  0 2r: 6.33E-14 2x: 0.00E+00 2u: 0.00E+00 ir: 3.28E-15 iu: 0.00E+00 rsn:   0
  1 2r: 6.70E-14 2x: 6.38E+07 2u: 5.54E-09 ir: 3.28E-15 iu: 2.61E-10 rsn: itol_upd
 Step    557 Time=  2.72500E+01 Dt=  5.00000E-02 [y] snes_conv_reason:   11
  newton =   1 [     563] linear =   107 [     59064] cuts =  0 [   0]
  --> max chng: dpmx=   2.3283E-10 dtmpmx=   9.2816E-11

== TH FLOW =====================================================================
  0 2r: 6.39E-14 2x: 0.00E+00 2u: 0.00E+00 ir: 3.22E-15 iu: 0.00E+00 rsn:   0
  1 2r: 6.64E-14 2x: 6.38E+07 2u: 5.59E-09 ir: 3.17E-15 iu: 2.76E-10 rsn: itol_upd
 Step    558 Time=  2.73000E+01 Dt=  5.00000E-02 [y] snes_conv_reason:   11
  newton =   1 [     564] linear =    96 [     59160] cuts =  0 [   0]
  --> max chng: dpmx=   2.3283E-10 dtmpmx=   1.0158E-10

== TH FLOW =====================================================================
  0 2r: 6.33E-14 2x: 0.00E+00 2u: 0.00E+00 ir: 3.03E-15 iu: 0.00E+00 rsn:   0
  1 2r: 6.56E-14 2x: 6.38E+07 2u: 5.32E-09 ir: 3.05E-15 iu: 2.82E-10 rsn: itol_upd
 Step    559 Time=  2.73500E+01 Dt=  5.00000E-02 [y] snes_conv_reason:   11
  newton =   1 [     565] linear =    76 [     59236] cuts =  0 [   0]
  --> max chng: dpmx=   2.3283E-10 dtmpmx=   9.3124E-11

== TH FLOW =====================================================================
  0 2r: 6.26E-14 2x: 0.00E+00 2u: 0.00E+00 ir: 2.81E-15 iu: 0.00E+00 rsn:   0
  1 2r: 6.52E-14 2x: 6.38E+07 2u: 5.43E-09 ir: 3.12E-15 iu: 2.90E-10 rsn: itol_upd
 Step    560 Time=  2.74000E+01 Dt=  5.00000E-02 [y] snes_conv_reason:   11
  newton =   1 [     566] linear =   124 [     59360] cuts =  0 [   0]
  --> max chng: dpmx=   2.3283E-10 dtmpmx=   8.9646E-11

== TH FLOW =====================================================================
  0 2r: 6.22E-14 2x: 0.00E+00 2u: 0.00E+00 ir: 3.06E-15 iu: 0.00E+00 rsn:   0
  1 2r: 6.55E-14 2x: 6.38E+07 2u: 5.61E-09 ir: 3.24E-15 iu: 2.69E-10 rsn: itol_upd
 Step    561 Time=  2.74500E+01 Dt=  5.00000E-02 [y] snes_conv_reason:   11
  newton =   1 [     567] linear =    70 [     59430] cuts =  0 [   0]
  --> max chng: dpmx=   2.3283E-10 dtmpmx=   9.5941E-11

== TH FLOW =====================================================================
  0 2r: 6.27E-14 2x: 0.00E+00 2u: 0.00E+00 ir: 3.12E-15 iu: 0.00E+00 rsn:   0
  1 2r: 6.57E-14 2x: 6.38E+07 2u: 5.37E-09 ir: 2.97E-15 iu: 3.09E-10 rsn: itol_upd
 Step    562 Time=  2.75000E+01 Dt=  5.00000E-02 [y] snes_conv_reason:   11
  newton =   1 [     568] linear =    95 [     59525] cuts =  0 [   0]
  --> max chng: dpmx=   3.4925E-10 dtmpmx=   8.9241E-11

 Wall Clock Time:  1.3004E+02 [sec]   2.1673E+00 [min]   3.6122E-02 [hr]
