
=================
  PFLOTRAN v4.0
=================

 Extent of Gridded Domain
  X: 2.5000000000000000 - 97.500000000000000
  Y: 2.5000000000000000 - 1277.5000000000000
  Z: 2.5000000000000000 - 77.500000000000000


=+=+=+=+=+=+=+=+=+=+=+=+=+=+=+=+=+=+=+=+=+=+=+=+=+=+=+=+=+=+=+=+=+=+=+=+=+=+=+=+

  Initial Condition

--------------------------------------------------------------------------------
          Flow Condition:   initial
                  Region:   all
--------------------------------------------------------------------------------

  Flow Condition: initial
    Synchronize time with update: no
    Time units: yr
    Length units: m
      Datum:
        Dataset: Unnamed Ascii Dataset
          Type: dataset_ascii_type
          Transient: no
          Array Rank:  3

    Sub Condition: pressure
      Type: hydrostatic
      Gradient:
        Dataset: Unnamed Ascii Dataset
          Type: dataset_ascii_type
          Transient: no
          Array Rank:  3
      Data:
        Dataset: Unnamed Ascii Dataset
          Type: dataset_ascii_type
          Transient: no
          Array Rank:  1

    Sub Condition: temperature
      Type: dirichlet
      Gradient:
      Data:
        Dataset: Unnamed Ascii Dataset
          Type: dataset_ascii_type
          Transient: no
          Array Rank:  1

--------------------------------------------------------------------------------

=+=+=+=+=+=+=+=+=+=+=+=+=+=+=+=+=+=+=+=+=+=+=+=+=+=+=+=+=+=+=+=+=+=+=+=+=+=+=+=+

  Boundary Condition

--------------------------------------------------------------------------------
          Flow Condition:   initial
                  Region:   north
--------------------------------------------------------------------------------

  Flow Condition: initial
    Synchronize time with update: no
    Time units: yr
    Length units: m
      Datum:
        Dataset: Unnamed Ascii Dataset
          Type: dataset_ascii_type
          Transient: no
          Array Rank:  3

    Sub Condition: pressure
      Type: hydrostatic
      Gradient:
        Dataset: Unnamed Ascii Dataset
          Type: dataset_ascii_type
          Transient: no
          Array Rank:  3
      Data:
        Dataset: Unnamed Ascii Dataset
          Type: dataset_ascii_type
          Transient: no
          Array Rank:  1

    Sub Condition: temperature
      Type: dirichlet
      Gradient:
      Data:
        Dataset: Unnamed Ascii Dataset
          Type: dataset_ascii_type
          Transient: no
          Array Rank:  1

--------------------------------------------------------------------------------

=+=+=+=+=+=+=+=+=+=+=+=+=+=+=+=+=+=+=+=+=+=+=+=+=+=+=+=+=+=+=+=+=+=+=+=+=+=+=+=+

  Boundary Condition

--------------------------------------------------------------------------------
          Flow Condition:   initial
                  Region:   south
--------------------------------------------------------------------------------

  Flow Condition: initial
    Synchronize time with update: no
    Time units: yr
    Length units: m
      Datum:
        Dataset: Unnamed Ascii Dataset
          Type: dataset_ascii_type
          Transient: no
          Array Rank:  3

    Sub Condition: pressure
      Type: hydrostatic
      Gradient:
        Dataset: Unnamed Ascii Dataset
          Type: dataset_ascii_type
          Transient: no
          Array Rank:  3
      Data:
        Dataset: Unnamed Ascii Dataset
          Type: dataset_ascii_type
          Transient: no
          Array Rank:  1

    Sub Condition: temperature
      Type: dirichlet
      Gradient:
      Data:
        Dataset: Unnamed Ascii Dataset
          Type: dataset_ascii_type
          Transient: no
          Array Rank:  1

--------------------------------------------------------------------------------

=+=+=+=+=+=+=+=+=+=+=+=+=+=+=+=+=+=+=+=+=+=+=+=+=+=+=+=+=+=+=+=+=+=+=+=+=+=+=+=+

  Boundary Condition

--------------------------------------------------------------------------------
          Flow Condition:   initial
                  Region:   west
--------------------------------------------------------------------------------

  Flow Condition: initial
    Synchronize time with update: no
    Time units: yr
    Length units: m
      Datum:
        Dataset: Unnamed Ascii Dataset
          Type: dataset_ascii_type
          Transient: no
          Array Rank:  3

    Sub Condition: pressure
      Type: hydrostatic
      Gradient:
        Dataset: Unnamed Ascii Dataset
          Type: dataset_ascii_type
          Transient: no
          Array Rank:  3
      Data:
        Dataset: Unnamed Ascii Dataset
          Type: dataset_ascii_type
          Transient: no
          Array Rank:  1

    Sub Condition: temperature
      Type: dirichlet
      Gradient:
      Data:
        Dataset: Unnamed Ascii Dataset
          Type: dataset_ascii_type
          Transient: no
          Array Rank:  1

--------------------------------------------------------------------------------

=+=+=+=+=+=+=+=+=+=+=+=+=+=+=+=+=+=+=+=+=+=+=+=+=+=+=+=+=+=+=+=+=+=+=+=+=+=+=+=+

  Boundary Condition

--------------------------------------------------------------------------------
          Flow Condition:   initial
                  Region:   east
--------------------------------------------------------------------------------

  Flow Condition: initial
    Synchronize time with update: no
    Time units: yr
    Length units: m
      Datum:
        Dataset: Unnamed Ascii Dataset
          Type: dataset_ascii_type
          Transient: no
          Array Rank:  3

    Sub Condition: pressure
      Type: hydrostatic
      Gradient:
        Dataset: Unnamed Ascii Dataset
          Type: dataset_ascii_type
          Transient: no
          Array Rank:  3
      Data:
        Dataset: Unnamed Ascii Dataset
          Type: dataset_ascii_type
          Transient: no
          Array Rank:  1

    Sub Condition: temperature
      Type: dirichlet
      Gradient:
      Data:
        Dataset: Unnamed Ascii Dataset
          Type: dataset_ascii_type
          Transient: no
          Array Rank:  1

--------------------------------------------------------------------------------

=+=+=+=+=+=+=+=+=+=+=+=+=+=+=+=+=+=+=+=+=+=+=+=+=+=+=+=+=+=+=+=+=+=+=+=+=+=+=+=+

  Source Sink

--------------------------------------------------------------------------------
          Flow Condition:   injection
                  Region:   heatpump_inject1
--------------------------------------------------------------------------------

  Flow Condition: injection
    Synchronize time with update: no
    Time units: yr
    Length units: m
      Datum:

    Sub Condition: rate
      Type: scaled volumetric rate
      Gradient:
      Data:
        Dataset: Unnamed Ascii Dataset
          Type: dataset_ascii_type
          Is transient?: yes
          Number of times:      3
          Is cyclic?: no
          Buffer:
            Rank:  2
            Dims:    1   3
            Buffer Slice Size:   0
          Array Rank:  1

    Sub Condition: temperature
      Type: dirichlet
      Gradient:
      Data:
        Dataset: Unnamed Ascii Dataset
          Type: dataset_ascii_type
          Transient: no
          Array Rank:  1

--------------------------------------------------------------------------------

 Requested processors =     1

FLOW Time Stepper
acceleration: on
acceleration threshold: 5
number of ramp entries: 5
ramp entry #1: 2.0000
ramp entry #2: 2.0000
ramp entry #3: 2.0000
ramp entry #4: 2.0000
ramp entry #5: 2.0000
ramp entry #6: 1.8000
ramp entry #7: 1.6000
ramp entry #8: 1.4000
ramp entry #9: 1.2000
ramp entry #10: 1.0000
ramp entry #11: 1.0000
ramp entry #12: 1.0000
ramp entry #13: 1.0000
maximum number of steps: 999999
constant time steps threshold: 5
maximum number of cuts: 16
reduction factor: 5.000000E-01
maximum growth factor: 2.000000E+00

FLOW Newton Solver
atol: 1.000000E-50
rtol: 1.000000E-03
stol: 1.000000E-08
dtol: 1.000000E+04
maxnorm: 1.000000E+20
inftolres: -9.990000E+02
inftolupd: 1.000000E+00
inftolrelupd: -9.990000E+02
inftolsclres: -9.990000E+02
max iter: 50
min iter: 1
maxf: 10000
matrix type: baij
precond. matrix type: baij
inexact newton: off
print convergence: on
print detailed convergence: off
check infinity norm: on

FLOW Linear Solver
solver: bcgs
preconditioner: bjacobi
atol: 1.000000E-50
rtol: 1.000000E-05
dtol: 1.000000E+04
maximum iteration: 10000

== TH FLOW =====================================================================
 Step      1 Time=  1.00000E-01 Dt=  1.00000E-01 [y] snes_conv_reason:    3
  newton =   1 [       1] linear =    26 [        26] cuts =  0 [   0]
  --> max chng: dpmx=   1.7811E+01 dtmpmx=   6.3393E-03

== TH FLOW =====================================================================
 Step      2 Time=  2.00000E-01 Dt=  1.00000E-01 [y] snes_conv_reason:   11
  newton =   1 [       2] linear =    27 [        53] cuts =  0 [   0]
  --> max chng: dpmx=   4.4268E-02 dtmpmx=   3.3662E-03

== TH FLOW =====================================================================
 Step      3 Time=  4.00000E-01 Dt=  2.00000E-01 [y] snes_conv_reason:   11
  newton =   5 [       7] linear =   107 [       160] cuts =  0 [   0]
  --> max chng: dpmx=   1.6626E+01 dtmpmx=   3.3978E+00

== TH FLOW =====================================================================
 Step      4 Time=  4.66000E-01 Dt=  6.60000E-02 [y] snes_conv_reason:   11
  newton =   1 [       8] linear =    22 [       182] cuts =  0 [   0]
  --> max chng: dpmx=   6.1200E-01 dtmpmx=   1.9477E-01

== TH FLOW =====================================================================
 Step      5 Time=  5.98000E-01 Dt=  1.32000E-01 [y] snes_conv_reason:   11
  newton =   1 [       9] linear =    22 [       204] cuts =  0 [   0]
  --> max chng: dpmx=   9.6487E-01 dtmpmx=   1.7900E-01

== TH FLOW =====================================================================
 Step      6 Time=  8.62000E-01 Dt=  2.64000E-01 [y] snes_conv_reason:   11
  newton =   2 [      11] linear =    43 [       247] cuts =  0 [   0]
  --> max chng: dpmx=   1.1869E+00 dtmpmx=   1.6617E-01

== TH FLOW =====================================================================
 Step      7 Time=  1.36200E+00 Dt=  5.00000E-01 [y] snes_conv_reason:   11
  newton =   1 [      12] linear =    24 [       271] cuts =  0 [   0]
  --> max chng: dpmx=   9.6948E-01 dtmpmx=   1.4371E-01

== TH FLOW =====================================================================
 Step      8 Time=  1.86200E+00 Dt=  5.00000E-01 [y] snes_conv_reason:   11
  newton =   1 [      13] linear =    25 [       296] cuts =  0 [   0]
  --> max chng: dpmx=   2.6878E-01 dtmpmx=   4.8478E-02

== TH FLOW =====================================================================
 Step      9 Time=  2.36200E+00 Dt=  5.00000E-01 [y] snes_conv_reason:   11
  newton =   1 [      14] linear =    24 [       320] cuts =  0 [   0]
  --> max chng: dpmx=   6.1525E-02 dtmpmx=   1.3463E-02

== TH FLOW =====================================================================
 Step     10 Time=  2.86200E+00 Dt=  5.00000E-01 [y] snes_conv_reason:   11
  newton =   1 [      15] linear =    23 [       343] cuts =  0 [   0]
  --> max chng: dpmx=   1.2056E-02 dtmpmx=   3.1204E-03

== TH FLOW =====================================================================
 Step     11 Time=  3.36200E+00 Dt=  5.00000E-01 [y] snes_conv_reason:   11
  newton =   1 [      16] linear =    23 [       366] cuts =  0 [   0]
  --> max chng: dpmx=   2.0986E-03 dtmpmx=   6.0734E-04

== TH FLOW =====================================================================
 Step     12 Time=  3.86200E+00 Dt=  5.00000E-01 [y] snes_conv_reason:   11
  newton =   1 [      17] linear =    25 [       391] cuts =  0 [   0]
  --> max chng: dpmx=   3.2148E-04 dtmpmx=   1.0333E-04

== TH FLOW =====================================================================
 Step     13 Time=  4.36200E+00 Dt=  5.00000E-01 [y] snes_conv_reason:   11
  newton =   1 [      18] linear =    22 [       413] cuts =  0 [   0]
  --> max chng: dpmx=   4.3983E-05 dtmpmx=   1.5790E-05

== TH FLOW =====================================================================
 Step     14 Time=  4.86200E+00 Dt=  5.00000E-01 [y] snes_conv_reason:   11
  newton =   1 [      19] linear =    21 [       434] cuts =  0 [   0]
  --> max chng: dpmx=   5.4794E-06 dtmpmx=   2.1613E-06

== TH FLOW =====================================================================
 Step     15 Time=  5.00000E+00 Dt=  1.38000E-01 [y] snes_conv_reason:   11
  newton =   1 [      20] linear =    21 [       455] cuts =  0 [   0]
  --> max chng: dpmx=   4.9619E-07 dtmpmx=   2.0582E-07

 Wall Clock Time:  9.7491E+00 [sec]   1.6249E-01 [min]   2.7081E-03 [hr]
