
=================
  PFLOTRAN v4.0
=================

 Extent of Gridded Domain
  X: 2.5000000000000000 - 97.500000000000000
  Y: 2.5000000000000000 - 1277.5000000000000
  Z: 2.5000000000000000 - 77.500000000000000


=+=+=+=+=+=+=+=+=+=+=+=+=+=+=+=+=+=+=+=+=+=+=+=+=+=+=+=+=+=+=+=+=+=+=+=+=+=+=+=+

  Initial Condition

--------------------------------------------------------------------------------
          Flow Condition:   initial
                  Region:   all
--------------------------------------------------------------------------------

  Flow Condition: initial
    Synchronize time with update: no
    Time units: yr
    Length units: m
      Datum:
        Dataset: Unnamed Ascii Dataset
          Type: dataset_ascii_type
          Transient: no
          Array Rank:  3

    Sub Condition: pressure
      Type: hydrostatic
      Gradient:
        Dataset: Unnamed Ascii Dataset
          Type: dataset_ascii_type
          Transient: no
          Array Rank:  3
      Data:
        Dataset: Unnamed Ascii Dataset
          Type: dataset_ascii_type
          Transient: no
          Array Rank:  1

    Sub Condition: temperature
      Type: dirichlet
      Gradient:
      Data:
        Dataset: Unnamed Ascii Dataset
          Type: dataset_ascii_type
          Transient: no
          Array Rank:  1

--------------------------------------------------------------------------------

=+=+=+=+=+=+=+=+=+=+=+=+=+=+=+=+=+=+=+=+=+=+=+=+=+=+=+=+=+=+=+=+=+=+=+=+=+=+=+=+

  Boundary Condition

--------------------------------------------------------------------------------
          Flow Condition:   initial
                  Region:   north
--------------------------------------------------------------------------------

  Flow Condition: initial
    Synchronize time with update: no
    Time units: yr
    Length units: m
      Datum:
        Dataset: Unnamed Ascii Dataset
          Type: dataset_ascii_type
          Transient: no
          Array Rank:  3

    Sub Condition: pressure
      Type: hydrostatic
      Gradient:
        Dataset: Unnamed Ascii Dataset
          Type: dataset_ascii_type
          Transient: no
          Array Rank:  3
      Data:
        Dataset: Unnamed Ascii Dataset
          Type: dataset_ascii_type
          Transient: no
          Array Rank:  1

    Sub Condition: temperature
      Type: dirichlet
      Gradient:
      Data:
        Dataset: Unnamed Ascii Dataset
          Type: dataset_ascii_type
          Transient: no
          Array Rank:  1

--------------------------------------------------------------------------------

=+=+=+=+=+=+=+=+=+=+=+=+=+=+=+=+=+=+=+=+=+=+=+=+=+=+=+=+=+=+=+=+=+=+=+=+=+=+=+=+

  Boundary Condition

--------------------------------------------------------------------------------
          Flow Condition:   initial
                  Region:   south
--------------------------------------------------------------------------------

  Flow Condition: initial
    Synchronize time with update: no
    Time units: yr
    Length units: m
      Datum:
        Dataset: Unnamed Ascii Dataset
          Type: dataset_ascii_type
          Transient: no
          Array Rank:  3

    Sub Condition: pressure
      Type: hydrostatic
      Gradient:
        Dataset: Unnamed Ascii Dataset
          Type: dataset_ascii_type
          Transient: no
          Array Rank:  3
      Data:
        Dataset: Unnamed Ascii Dataset
          Type: dataset_ascii_type
          Transient: no
          Array Rank:  1

    Sub Condition: temperature
      Type: dirichlet
      Gradient:
      Data:
        Dataset: Unnamed Ascii Dataset
          Type: dataset_ascii_type
          Transient: no
          Array Rank:  1

--------------------------------------------------------------------------------

=+=+=+=+=+=+=+=+=+=+=+=+=+=+=+=+=+=+=+=+=+=+=+=+=+=+=+=+=+=+=+=+=+=+=+=+=+=+=+=+

  Boundary Condition

--------------------------------------------------------------------------------
          Flow Condition:   initial
                  Region:   west
--------------------------------------------------------------------------------

  Flow Condition: initial
    Synchronize time with update: no
    Time units: yr
    Length units: m
      Datum:
        Dataset: Unnamed Ascii Dataset
          Type: dataset_ascii_type
          Transient: no
          Array Rank:  3

    Sub Condition: pressure
      Type: hydrostatic
      Gradient:
        Dataset: Unnamed Ascii Dataset
          Type: dataset_ascii_type
          Transient: no
          Array Rank:  3
      Data:
        Dataset: Unnamed Ascii Dataset
          Type: dataset_ascii_type
          Transient: no
          Array Rank:  1

    Sub Condition: temperature
      Type: dirichlet
      Gradient:
      Data:
        Dataset: Unnamed Ascii Dataset
          Type: dataset_ascii_type
          Transient: no
          Array Rank:  1

--------------------------------------------------------------------------------

=+=+=+=+=+=+=+=+=+=+=+=+=+=+=+=+=+=+=+=+=+=+=+=+=+=+=+=+=+=+=+=+=+=+=+=+=+=+=+=+

  Boundary Condition

--------------------------------------------------------------------------------
          Flow Condition:   initial
                  Region:   east
--------------------------------------------------------------------------------

  Flow Condition: initial
    Synchronize time with update: no
    Time units: yr
    Length units: m
      Datum:
        Dataset: Unnamed Ascii Dataset
          Type: dataset_ascii_type
          Transient: no
          Array Rank:  3

    Sub Condition: pressure
      Type: hydrostatic
      Gradient:
        Dataset: Unnamed Ascii Dataset
          Type: dataset_ascii_type
          Transient: no
          Array Rank:  3
      Data:
        Dataset: Unnamed Ascii Dataset
          Type: dataset_ascii_type
          Transient: no
          Array Rank:  1

    Sub Condition: temperature
      Type: dirichlet
      Gradient:
      Data:
        Dataset: Unnamed Ascii Dataset
          Type: dataset_ascii_type
          Transient: no
          Array Rank:  1

--------------------------------------------------------------------------------

=+=+=+=+=+=+=+=+=+=+=+=+=+=+=+=+=+=+=+=+=+=+=+=+=+=+=+=+=+=+=+=+=+=+=+=+=+=+=+=+

  Source Sink

--------------------------------------------------------------------------------
          Flow Condition:   injection
                  Region:   heatpump_inject1
--------------------------------------------------------------------------------

  Flow Condition: injection
    Synchronize time with update: no
    Time units: yr
    Length units: m
      Datum:

    Sub Condition: rate
      Type: scaled volumetric rate
      Gradient:
      Data:
        Dataset: Unnamed Ascii Dataset
          Type: dataset_ascii_type
          Is transient?: yes
          Number of times:      3
          Is cyclic?: no
          Buffer:
            Rank:  2
            Dims:    1   3
            Buffer Slice Size:   0
          Array Rank:  1

    Sub Condition: temperature
      Type: dirichlet
      Gradient:
      Data:
        Dataset: Unnamed Ascii Dataset
          Type: dataset_ascii_type
          Transient: no
          Array Rank:  1

--------------------------------------------------------------------------------

 Requested processors =     1

FLOW Time Stepper
acceleration: on
acceleration threshold: 5
number of ramp entries: 5
ramp entry #1: 2.0000
ramp entry #2: 2.0000
ramp entry #3: 2.0000
ramp entry #4: 2.0000
ramp entry #5: 2.0000
ramp entry #6: 1.8000
ramp entry #7: 1.6000
ramp entry #8: 1.4000
ramp entry #9: 1.2000
ramp entry #10: 1.0000
ramp entry #11: 1.0000
ramp entry #12: 1.0000
ramp entry #13: 1.0000
maximum number of steps: 999999
constant time steps threshold: 5
maximum number of cuts: 16
reduction factor: 5.000000E-01
maximum growth factor: 2.000000E+00

FLOW Newton Solver
atol: 1.000000E-50
rtol: 1.000000E-03
stol: 1.000000E-08
dtol: 1.000000E+04
maxnorm: 1.000000E+20
inftolres: -9.990000E+02
inftolupd: 1.000000E+00
inftolrelupd: -9.990000E+02
inftolsclres: -9.990000E+02
max iter: 50
min iter: 1
maxf: 10000
matrix type: baij
precond. matrix type: baij
inexact newton: off
print convergence: on
print detailed convergence: off
check infinity norm: on

FLOW Linear Solver
solver: bcgs
preconditioner: bjacobi
atol: 1.000000E-50
rtol: 1.000000E-05
dtol: 1.000000E+04
maximum iteration: 10000

== TH FLOW =====================================================================
 Step      1 Time=  1.00000E-01 Dt=  1.00000E-01 [y] snes_conv_reason:    3
  newton =   1 [       1] linear =    28 [        28] cuts =  0 [   0]
  --> max chng: dpmx=   4.3378E+01 dtmpmx=   2.5782E-02

== TH FLOW =====================================================================
 Step      2 Time=  2.00000E-01 Dt=  1.00000E-01 [y] snes_conv_reason:   11
  newton =   1 [       2] linear =    31 [        59] cuts =  0 [   0]
  --> max chng: dpmx=   6.6519E-02 dtmpmx=   1.0131E-02

== TH FLOW =====================================================================
 Step      3 Time=  4.00000E-01 Dt=  2.00000E-01 [y] snes_conv_reason:   11
  newton =   6 [       8] linear =   138 [       197] cuts =  0 [   0]
  --> max chng: dpmx=   3.4411E+01 dtmpmx=   4.2417E+00

== TH FLOW =====================================================================
 Step      4 Time=  4.66000E-01 Dt=  6.60000E-02 [y] snes_conv_reason:   11
  newton =   1 [       9] linear =    24 [       221] cuts =  0 [   0]
  --> max chng: dpmx=   7.8938E-01 dtmpmx=   3.0940E-01

== TH FLOW =====================================================================
 Step      5 Time=  5.98000E-01 Dt=  1.32000E-01 [y] snes_conv_reason:   11
  newton =   2 [      11] linear =    54 [       275] cuts =  0 [   0]
  --> max chng: dpmx=   1.0211E+00 dtmpmx=   2.7569E-01

== TH FLOW =====================================================================
 Step      6 Time=  8.62000E-01 Dt=  2.64000E-01 [y] snes_conv_reason:   11
  newton =   2 [      13] linear =    58 [       333] cuts =  0 [   0]
  --> max chng: dpmx=   1.1455E+00 dtmpmx=   1.3199E-01

== TH FLOW =====================================================================
 Step      7 Time=  1.36200E+00 Dt=  5.00000E-01 [y] snes_conv_reason:   11
  newton =   2 [      15] linear =    55 [       388] cuts =  0 [   0]
  --> max chng: dpmx=   1.2607E+00 dtmpmx=   1.1621E-01

== TH FLOW =====================================================================
 Step      8 Time=  1.86200E+00 Dt=  5.00000E-01 [y] snes_conv_reason:   11
  newton =   1 [      16] linear =    26 [       414] cuts =  0 [   0]
  --> max chng: dpmx=   6.2210E-01 dtmpmx=   6.0104E-02

== TH FLOW =====================================================================
 Step      9 Time=  2.36200E+00 Dt=  5.00000E-01 [y] snes_conv_reason:   11
  newton =   1 [      17] linear =    26 [       440] cuts =  0 [   0]
  --> max chng: dpmx=   2.2861E-01 dtmpmx=   2.4596E-02

== TH FLOW =====================================================================
 Step     10 Time=  2.86200E+00 Dt=  5.00000E-01 [y] snes_conv_reason:   11
  newton =   1 [      18] linear =    26 [       466] cuts =  0 [   0]
  --> max chng: dpmx=   6.6814E-02 dtmpmx=   7.8340E-03

== TH FLOW =====================================================================
 Step     11 Time=  3.36200E+00 Dt=  5.00000E-01 [y] snes_conv_reason:   11
  newton =   1 [      19] linear =    25 [       491] cuts =  0 [   0]
  --> max chng: dpmx=   1.6528E-02 dtmpmx=   2.0758E-03

== TH FLOW =====================================================================
 Step     12 Time=  3.86200E+00 Dt=  5.00000E-01 [y] snes_conv_reason:   11
  newton =   1 [      20] linear =    23 [       514] cuts =  0 [   0]
  --> max chng: dpmx=   3.5510E-03 dtmpmx=   4.7127E-04

== TH FLOW =====================================================================
 Step     13 Time=  4.36200E+00 Dt=  5.00000E-01 [y] snes_conv_reason:   11
  newton =   1 [      21] linear =    23 [       537] cuts =  0 [   0]
  --> max chng: dpmx=   6.7577E-04 dtmpmx=   9.3810E-05

== TH FLOW =====================================================================
 Step     14 Time=  4.86200E+00 Dt=  5.00000E-01 [y] snes_conv_reason:   11
  newton =   1 [      22] linear =    24 [       561] cuts =  0 [   0]
  --> max chng: dpmx=   1.1571E-04 dtmpmx=   1.6673E-05

== TH FLOW =====================================================================
 Step     15 Time=  5.00000E+00 Dt=  1.38000E-01 [y] snes_conv_reason:   11
  newton =   1 [      23] linear =    23 [       584] cuts =  0 [   0]
  --> max chng: dpmx=   1.3031E-05 dtmpmx=   1.9231E-06

 Wall Clock Time:  1.6381E+01 [sec]   2.7302E-01 [min]   4.5503E-03 [hr]
