
===================
  PFLOTRAN v3.0.1
===================

 Extent of Gridded Domain
  X: 2.5000000000000000 - 97.500000000000000
  Y: 2.5000000000000000 - 1277.5000000000000
  Z: 2.5000000000000000 - 2.5000000000000000


=+=+=+=+=+=+=+=+=+=+=+=+=+=+=+=+=+=+=+=+=+=+=+=+=+=+=+=+=+=+=+=+=+=+=+=+=+=+=+=+

  Initial Condition

--------------------------------------------------------------------------------
          Flow Condition:   initial
                  Region:   all
--------------------------------------------------------------------------------

  Flow Condition: initial
    Synchronize time with update: no
    Time units: yr
    Length units: m
      Datum:
        Dataset: Unnamed Ascii Dataset
          Type: dataset_ascii_type
          Transient: no
          Array Rank:  3

    Sub Condition: pressure
      Type: hydrostatic
      Gradient:
        Dataset: Unnamed Ascii Dataset
          Type: dataset_ascii_type
          Transient: no
          Array Rank:  3
      Data:
        Dataset: Unnamed Ascii Dataset
          Type: dataset_ascii_type
          Transient: no
          Array Rank:  1

    Sub Condition: temperature
      Type: dirichlet
      Gradient:
      Data:
        Dataset: Unnamed Ascii Dataset
          Type: dataset_ascii_type
          Transient: no
          Array Rank:  1

--------------------------------------------------------------------------------

=+=+=+=+=+=+=+=+=+=+=+=+=+=+=+=+=+=+=+=+=+=+=+=+=+=+=+=+=+=+=+=+=+=+=+=+=+=+=+=+

  Boundary Condition

--------------------------------------------------------------------------------
          Flow Condition:   initial
                  Region:   north
--------------------------------------------------------------------------------

  Flow Condition: initial
    Synchronize time with update: no
    Time units: yr
    Length units: m
      Datum:
        Dataset: Unnamed Ascii Dataset
          Type: dataset_ascii_type
          Transient: no
          Array Rank:  3

    Sub Condition: pressure
      Type: hydrostatic
      Gradient:
        Dataset: Unnamed Ascii Dataset
          Type: dataset_ascii_type
          Transient: no
          Array Rank:  3
      Data:
        Dataset: Unnamed Ascii Dataset
          Type: dataset_ascii_type
          Transient: no
          Array Rank:  1

    Sub Condition: temperature
      Type: dirichlet
      Gradient:
      Data:
        Dataset: Unnamed Ascii Dataset
          Type: dataset_ascii_type
          Transient: no
          Array Rank:  1

--------------------------------------------------------------------------------

=+=+=+=+=+=+=+=+=+=+=+=+=+=+=+=+=+=+=+=+=+=+=+=+=+=+=+=+=+=+=+=+=+=+=+=+=+=+=+=+

  Boundary Condition

--------------------------------------------------------------------------------
          Flow Condition:   initial
                  Region:   south
--------------------------------------------------------------------------------

  Flow Condition: initial
    Synchronize time with update: no
    Time units: yr
    Length units: m
      Datum:
        Dataset: Unnamed Ascii Dataset
          Type: dataset_ascii_type
          Transient: no
          Array Rank:  3

    Sub Condition: pressure
      Type: hydrostatic
      Gradient:
        Dataset: Unnamed Ascii Dataset
          Type: dataset_ascii_type
          Transient: no
          Array Rank:  3
      Data:
        Dataset: Unnamed Ascii Dataset
          Type: dataset_ascii_type
          Transient: no
          Array Rank:  1

    Sub Condition: temperature
      Type: dirichlet
      Gradient:
      Data:
        Dataset: Unnamed Ascii Dataset
          Type: dataset_ascii_type
          Transient: no
          Array Rank:  1

--------------------------------------------------------------------------------

=+=+=+=+=+=+=+=+=+=+=+=+=+=+=+=+=+=+=+=+=+=+=+=+=+=+=+=+=+=+=+=+=+=+=+=+=+=+=+=+

  Source Sink

--------------------------------------------------------------------------------
          Flow Condition:   injection
                  Region:   heatpump_inject1
--------------------------------------------------------------------------------

  Flow Condition: injection
    Synchronize time with update: no
    Time units: yr
    Length units: m
      Datum:

    Sub Condition: rate
      Type: scaled volumetric rate
      Gradient:
      Data:
        Dataset: Unnamed Ascii Dataset
          Type: dataset_ascii_type
          Is transient?: yes
          Number of times:      3
          Is cyclic?: no
          Buffer:
            Rank:  2
            Dims:    1   3
            Buffer Slice Size:   0
          Array Rank:  1

    Sub Condition: temperature
      Type: dirichlet
      Gradient:
      Data:
        Dataset: Unnamed Ascii Dataset
          Type: dataset_ascii_type
          Transient: no
          Array Rank:  1

--------------------------------------------------------------------------------

 Requested processors =    16

FLOW Time Stepper
                 acceleration: on
       acceleration threshold: 5
       number of ramp entries: 5
                ramp entry #1: 2.0000
                ramp entry #2: 2.0000
                ramp entry #3: 2.0000
                ramp entry #4: 2.0000
                ramp entry #5: 2.0000
                ramp entry #6: 1.8000
                ramp entry #7: 1.6000
                ramp entry #8: 1.4000
                ramp entry #9: 1.2000
               ramp entry #10: 1.0000
               ramp entry #11: 1.0000
               ramp entry #12: 1.0000
               ramp entry #13: 1.0000
      maximum number of steps: 999999
constant time steps threshold: 5
       maximum number of cuts: 16
             reduction factor: 5.000000E-01
        maximum growth factor: 2.000000E+00

FLOW Newton Solver
                         atol: 1.000000E-50
                         rtol: 1.000000E-03
                         stol: 1.000000E-08
                         dtol: 1.000000E+04
                      maxnorm: 1.000000E+20
                    inftolres: -9.990000E+02
                    inftolupd: 1.000000E+00
                 inftolrelupd: -9.990000E+02
                 inftolsclres: -9.990000E+02
                     max iter: 50
                     min iter: 1
                         maxf: 10000
                  matrix type: baij
         precond. matrix type: baij
               inexact newton: off
            print convergence: on
   print detailed convergence: off
          check infinity norm: on

FLOW Linear Solver
                       solver: bcgs
               preconditioner: bjacobi
                         atol: 1.000000E-50
                         rtol: 1.000000E-05
                         dtol: 1.000000E+04
            maximum iteration: 10000

== TH FLOW =====================================================================
  0 2r: 2.48E-09 2x: 0.00E+00 2u: 0.00E+00 ir: 3.47E-11 iu: 0.00E+00 rsn:   0
  1 2r: 5.06E-12 2x: 6.45E+07 2u: 1.16E+00 ir: 1.96E-13 iu: 2.20E-02 rsn: itol_upd
 Step      1 Time=  1.00000E-05 Dt=  1.00000E-05 [y] snes_conv_reason:   11
  newton =   1 [       1] linear =    65 [        65] cuts =  0 [   0]
  --> max chng: dpmx=   2.2048E-02 dtmpmx=   2.0480E-09

== TH FLOW =====================================================================
  0 2r: 2.42E-09 2x: 0.00E+00 2u: 0.00E+00 ir: 3.40E-11 iu: 0.00E+00 rsn:   0
  1 2r: 3.59E-12 2x: 6.45E+07 2u: 3.79E-01 ir: 1.48E-13 iu: 7.45E-03 rsn: itol_upd
 Step      2 Time=  3.00000E-05 Dt=  2.00000E-05 [y] snes_conv_reason:   11
  newton =   1 [       2] linear =    63 [       128] cuts =  0 [   0]
  --> max chng: dpmx=   7.4488E-03 dtmpmx=   4.0501E-09

== TH FLOW =====================================================================
  0 2r: 2.40E-09 2x: 0.00E+00 2u: 0.00E+00 ir: 3.37E-11 iu: 0.00E+00 rsn:   0
  1 2r: 1.77E-12 2x: 6.45E+07 2u: 6.73E-02 ir: 6.47E-14 iu: 1.33E-03 rsn: itol_upd
 Step      3 Time=  7.00000E-05 Dt=  4.00000E-05 [y] snes_conv_reason:   11
  newton =   1 [       3] linear =    72 [       200] cuts =  0 [   0]
  --> max chng: dpmx=   1.3283E-03 dtmpmx=   8.0833E-09

== TH FLOW =====================================================================
  0 2r: 2.40E-09 2x: 0.00E+00 2u: 0.00E+00 ir: 3.36E-11 iu: 0.00E+00 rsn:   0
  1 2r: 8.78E-13 2x: 6.45E+07 2u: 6.24E-03 ir: 3.49E-14 iu: 1.23E-04 rsn: itol_upd
 Step      4 Time=  1.50000E-04 Dt=  8.00000E-05 [y] snes_conv_reason:   11
  newton =   1 [       4] linear =   115 [       315] cuts =  0 [   0]
  --> max chng: dpmx=   1.2334E-04 dtmpmx=   1.6164E-08

== TH FLOW =====================================================================
  0 2r: 2.40E-09 2x: 0.00E+00 2u: 0.00E+00 ir: 3.36E-11 iu: 0.00E+00 rsn:   0
  1 2r: 4.58E-13 2x: 6.45E+07 2u: 2.94E-04 ir: 1.90E-14 iu: 5.83E-06 rsn: itol_upd
 Step      5 Time=  3.10000E-04 Dt=  1.60000E-04 [y] snes_conv_reason:   11
  newton =   1 [       5] linear =   119 [       434] cuts =  0 [   0]
  --> max chng: dpmx=   5.8282E-06 dtmpmx=   3.2327E-08

== TH FLOW =====================================================================
  0 2r: 2.40E-09 2x: 0.00E+00 2u: 0.00E+00 ir: 3.36E-11 iu: 0.00E+00 rsn:   0
  1 2r: 2.28E-13 2x: 6.45E+07 2u: 6.40E-06 ir: 9.78E-15 iu: 1.28E-07 rsn: itol_upd
 Step      6 Time=  6.30000E-04 Dt=  3.20000E-04 [y] snes_conv_reason:   11
  newton =   1 [       6] linear =   113 [       547] cuts =  0 [   0]
  --> max chng: dpmx=   1.2817E-07 dtmpmx=   6.4654E-08

== TH FLOW =====================================================================
  0 2r: 2.40E-09 2x: 0.00E+00 2u: 0.00E+00 ir: 3.36E-11 iu: 0.00E+00 rsn:   0
  1 2r: 1.17E-13 2x: 6.45E+07 2u: 1.43E-05 ir: 5.25E-15 iu: 2.63E-07 rsn: itol_upd
 Step      7 Time=  1.27000E-03 Dt=  6.40000E-04 [y] snes_conv_reason:   11
  newton =   1 [       7] linear =   114 [       661] cuts =  0 [   0]
  --> max chng: dpmx=   2.6333E-07 dtmpmx=   1.2931E-07

== TH FLOW =====================================================================
  0 2r: 2.40E-09 2x: 0.00E+00 2u: 0.00E+00 ir: 3.36E-11 iu: 0.00E+00 rsn:   0
  1 2r: 6.35E-14 2x: 6.45E+07 2u: 2.90E-05 ir: 2.75E-15 iu: 5.35E-07 rsn: itol_upd
 Step      8 Time=  2.55000E-03 Dt=  1.28000E-03 [y] snes_conv_reason:   11
  newton =   1 [       8] linear =   120 [       781] cuts =  0 [   0]
  --> max chng: dpmx=   5.3470E-07 dtmpmx=   2.5862E-07

== TH FLOW =====================================================================
  0 2r: 2.40E-09 2x: 0.00E+00 2u: 0.00E+00 ir: 3.36E-11 iu: 0.00E+00 rsn:   0
  1 2r: 3.16E-14 2x: 6.45E+07 2u: 5.88E-05 ir: 1.33E-15 iu: 1.10E-06 rsn: itol_upd
 Step      9 Time=  5.11000E-03 Dt=  2.56000E-03 [y] snes_conv_reason:   11
  newton =   1 [       9] linear =   118 [       899] cuts =  0 [   0]
  --> max chng: dpmx=   1.1001E-06 dtmpmx=   5.1724E-07

== TH FLOW =====================================================================
  0 2r: 2.40E-09 2x: 0.00E+00 2u: 0.00E+00 ir: 3.36E-11 iu: 0.00E+00 rsn:   0
  1 2r: 1.85E-14 2x: 6.45E+07 2u: 1.22E-04 ir: 8.28E-16 iu: 2.32E-06 rsn: itol_upd
 Step     10 Time=  1.02300E-02 Dt=  5.12000E-03 [y] snes_conv_reason:   11
  newton =   1 [      10] linear =   118 [      1017] cuts =  0 [   0]
  --> max chng: dpmx=   2.3211E-06 dtmpmx=   1.0345E-06

== TH FLOW =====================================================================
  0 2r: 2.40E-09 2x: 0.00E+00 2u: 0.00E+00 ir: 3.36E-11 iu: 0.00E+00 rsn:   0
  1 2r: 1.28E-14 2x: 6.45E+07 2u: 2.60E-04 ir: 5.41E-16 iu: 5.14E-06 rsn: itol_upd
 Step     11 Time=  2.04700E-02 Dt=  1.02400E-02 [y] snes_conv_reason:   11
  newton =   1 [      11] linear =   120 [      1137] cuts =  0 [   0]
  --> max chng: dpmx=   5.1400E-06 dtmpmx=   2.0689E-06

== TH FLOW =====================================================================
  0 2r: 2.40E-09 2x: 0.00E+00 2u: 0.00E+00 ir: 3.36E-11 iu: 0.00E+00 rsn:   0
  1 2r: 9.69E-15 2x: 6.45E+07 2u: 5.91E-04 ir: 4.51E-16 iu: 1.22E-05 rsn: itol_upd
 Step     12 Time=  4.09500E-02 Dt=  2.04800E-02 [y] snes_conv_reason:   11
  newton =   1 [      12] linear =   114 [      1251] cuts =  0 [   0]
  --> max chng: dpmx=   1.2243E-05 dtmpmx=   4.1379E-06

== TH FLOW =====================================================================
  0 2r: 2.40E-09 2x: 0.00E+00 2u: 0.00E+00 ir: 3.36E-11 iu: 0.00E+00 rsn:   0
  1 2r: 8.37E-15 2x: 6.45E+07 2u: 1.48E-03 ir: 4.30E-16 iu: 3.22E-05 rsn: itol_upd
 Step     13 Time=  8.19100E-02 Dt=  4.09600E-02 [y] snes_conv_reason:   11
  newton =   1 [      13] linear =   120 [      1371] cuts =  0 [   0]
  --> max chng: dpmx=   3.2240E-05 dtmpmx=   8.2758E-06

== TH FLOW =====================================================================
  0 2r: 2.39E-09 2x: 0.00E+00 2u: 0.00E+00 ir: 3.36E-11 iu: 0.00E+00 rsn:   0
  1 2r: 9.99E-15 2x: 6.45E+07 2u: 7.09E-04 ir: 5.25E-16 iu: 1.58E-05 rsn: itol_upd
 Step     14 Time=  1.00000E-01 Dt=  1.80900E-02 [y] snes_conv_reason:   11
  newton =   1 [      14] linear =   120 [      1491] cuts =  0 [   0]
  --> max chng: dpmx=   1.5752E-05 dtmpmx=   3.6550E-06

== TH FLOW =====================================================================
  0 2r: 2.39E-09 2x: 0.00E+00 2u: 0.00E+00 ir: 3.36E-11 iu: 0.00E+00 rsn:   0
  1 2r: 8.20E-15 2x: 6.45E+07 2u: 2.42E-03 ir: 4.08E-16 iu: 5.50E-05 rsn: itol_upd
 Step     15 Time=  1.50000E-01 Dt=  5.00000E-02 [y] snes_conv_reason:   11
  newton =   1 [      15] linear =   115 [      1606] cuts =  0 [   0]
  --> max chng: dpmx=   5.5003E-05 dtmpmx=   1.0102E-05

== TH FLOW =====================================================================
  0 2r: 2.39E-09 2x: 0.00E+00 2u: 0.00E+00 ir: 3.36E-11 iu: 0.00E+00 rsn:   0
  1 2r: 8.16E-15 2x: 6.45E+07 2u: 2.89E-03 ir: 4.34E-16 iu: 6.64E-05 rsn: itol_upd
 Step     16 Time=  2.00000E-01 Dt=  5.00000E-02 [y] snes_conv_reason:   11
  newton =   1 [      16] linear =   120 [      1726] cuts =  0 [   0]
  --> max chng: dpmx=   6.6358E-05 dtmpmx=   1.0102E-05

== TH FLOW =====================================================================
  0 2r: 1.66E-04 2x: 0.00E+00 2u: 0.00E+00 ir: 1.27E-04 iu: 0.00E+00 rsn:   0
  1 2r: 7.78E-05 2x: 6.45E+07 2u: 1.33E+04 ir: 6.75E-05 iu: 4.50E+02 rsn:   0
  2 2r: 5.71E-06 2x: 6.45E+07 2u: 1.00E+01 ir: 5.06E-06 iu: 4.53E+00 rsn:   0
  3 2r: 1.60E-08 2x: 6.45E+07 2u: 7.23E+00 ir: 9.68E-09 iu: 4.08E-01 rsn: itol_upd
 Step     17 Time=  2.50000E-01 Dt=  5.00000E-02 [y] snes_conv_reason:   11
  newton =   3 [      19] linear =   335 [      2061] cuts =  0 [   0]
  --> max chng: dpmx=   4.4589E+02 dtmpmx=   3.4996E+00

== TH FLOW =====================================================================
  0 2r: 1.48E-05 2x: 0.00E+00 2u: 0.00E+00 ir: 1.16E-05 iu: 0.00E+00 rsn:   0
  1 2r: 1.03E-07 2x: 6.45E+07 2u: 5.38E+01 ir: 6.23E-08 iu: 3.23E+00 rsn:   0
  2 2r: 9.85E-12 2x: 6.45E+07 2u: 2.18E+00 ir: 7.10E-12 iu: 7.04E-02 rsn: itol_upd
 Step     18 Time=  3.00000E-01 Dt=  5.00000E-02 [y] snes_conv_reason:   11
  newton =   2 [      21] linear =   246 [      2307] cuts =  0 [   0]
  --> max chng: dpmx=   3.2399E+00 dtmpmx=   1.4137E+00

== TH FLOW =====================================================================
  0 2r: 9.66E-06 2x: 0.00E+00 2u: 0.00E+00 ir: 4.70E-06 iu: 0.00E+00 rsn:   0
  1 2r: 2.43E-08 2x: 6.45E+07 2u: 4.87E+01 ir: 1.28E-08 iu: 1.74E+00 rsn:   0
  2 2r: 1.90E-12 2x: 6.45E+07 2u: 7.80E-01 ir: 1.33E-12 iu: 2.71E-02 rsn: itol_upd
 Step     19 Time=  3.50000E-01 Dt=  5.00000E-02 [y] snes_conv_reason:   11
  newton =   2 [      23] linear =   246 [      2553] cuts =  0 [   0]
  --> max chng: dpmx=   1.7207E+00 dtmpmx=   9.7015E-01

== TH FLOW =====================================================================
  0 2r: 7.97E-06 2x: 0.00E+00 2u: 0.00E+00 ir: 3.23E-06 iu: 0.00E+00 rsn:   0
  1 2r: 1.29E-08 2x: 6.45E+07 2u: 4.69E+01 ir: 5.45E-09 iu: 1.60E+00 rsn:   0
  2 2r: 6.53E-13 2x: 6.45E+07 2u: 3.29E-01 ir: 5.00E-13 iu: 1.24E-02 rsn: itol_upd
 Step     20 Time=  4.00000E-01 Dt=  5.00000E-02 [y] snes_conv_reason:   11
  newton =   2 [      25] linear =   245 [      2798] cuts =  0 [   0]
  --> max chng: dpmx=   1.5929E+00 dtmpmx=   7.6304E-01

== TH FLOW =====================================================================
  0 2r: 7.06E-06 2x: 0.00E+00 2u: 0.00E+00 ir: 2.54E-06 iu: 0.00E+00 rsn:   0
  1 2r: 8.48E-09 2x: 6.45E+07 2u: 4.57E+01 ir: 3.00E-09 iu: 1.51E+00 rsn:   0
  2 2r: 2.76E-13 2x: 6.45E+07 2u: 1.40E-01 ir: 1.66E-13 iu: 6.85E-03 rsn: itol_upd
 Step     21 Time=  4.50000E-01 Dt=  5.00000E-02 [y] snes_conv_reason:   11
  newton =   2 [      27] linear =   249 [      3047] cuts =  0 [   0]
  --> max chng: dpmx=   1.5036E+00 dtmpmx=   6.3859E-01

== TH FLOW =====================================================================
  0 2r: 6.47E-06 2x: 0.00E+00 2u: 0.00E+00 ir: 2.12E-06 iu: 0.00E+00 rsn:   0
  1 2r: 6.15E-09 2x: 6.45E+07 2u: 4.49E+01 ir: 2.09E-09 iu: 1.44E+00 rsn: rtol
 Step     22 Time=  5.00000E-01 Dt=  5.00000E-02 [y] snes_conv_reason:    3
  newton =   1 [      28] linear =   125 [      3172] cuts =  0 [   0]
  --> max chng: dpmx=   1.4399E+00 dtmpmx=   5.7508E-01

== TH FLOW =====================================================================
  0 2r: 6.05E-06 2x: 0.00E+00 2u: 0.00E+00 ir: 1.91E-06 iu: 0.00E+00 rsn:   0
  1 2r: 4.74E-09 2x: 6.45E+07 2u: 4.40E+01 ir: 1.30E-09 iu: 1.38E+00 rsn: rtol
 Step     23 Time=  5.50000E-01 Dt=  5.00000E-02 [y] snes_conv_reason:    3
  newton =   1 [      29] linear =   121 [      3293] cuts =  0 [   0]
  --> max chng: dpmx=   1.3842E+00 dtmpmx=   5.1842E-01

== TH FLOW =====================================================================
  0 2r: 5.73E-06 2x: 0.00E+00 2u: 0.00E+00 ir: 1.72E-06 iu: 0.00E+00 rsn:   0
  1 2r: 4.04E-09 2x: 6.45E+07 2u: 4.36E+01 ir: 1.06E-09 iu: 1.34E+00 rsn: rtol
 Step     24 Time=  6.00000E-01 Dt=  5.00000E-02 [y] snes_conv_reason:    3
  newton =   1 [      30] linear =   115 [      3408] cuts =  0 [   0]
  --> max chng: dpmx=   1.3428E+00 dtmpmx=   4.6809E-01

== TH FLOW =====================================================================
  0 2r: 5.47E-06 2x: 0.00E+00 2u: 0.00E+00 ir: 1.56E-06 iu: 0.00E+00 rsn:   0
  1 2r: 3.21E-09 2x: 6.45E+07 2u: 4.30E+01 ir: 8.31E-10 iu: 1.31E+00 rsn: rtol
 Step     25 Time=  6.50000E-01 Dt=  5.00000E-02 [y] snes_conv_reason:    3
  newton =   1 [      31] linear =   125 [      3533] cuts =  0 [   0]
  --> max chng: dpmx=   1.3064E+00 dtmpmx=   4.3905E-01

== TH FLOW =====================================================================
  0 2r: 5.26E-06 2x: 0.00E+00 2u: 0.00E+00 ir: 1.46E-06 iu: 0.00E+00 rsn:   0
  1 2r: 2.75E-09 2x: 6.45E+07 2u: 4.26E+01 ir: 7.03E-10 iu: 1.28E+00 rsn: rtol
 Step     26 Time=  7.00000E-01 Dt=  5.00000E-02 [y] snes_conv_reason:    3
  newton =   1 [      32] linear =   124 [      3657] cuts =  0 [   0]
  --> max chng: dpmx=   1.2765E+00 dtmpmx=   4.1090E-01

== TH FLOW =====================================================================
  0 2r: 5.08E-06 2x: 0.00E+00 2u: 0.00E+00 ir: 1.37E-06 iu: 0.00E+00 rsn:   0
  1 2r: 2.39E-09 2x: 6.45E+07 2u: 4.22E+01 ir: 5.95E-10 iu: 1.25E+00 rsn: rtol
 Step     27 Time=  7.50000E-01 Dt=  5.00000E-02 [y] snes_conv_reason:    3
  newton =   1 [      33] linear =   122 [      3779] cuts =  0 [   0]
  --> max chng: dpmx=   1.2501E+00 dtmpmx=   3.8235E-01

== TH FLOW =====================================================================
  0 2r: 4.92E-06 2x: 0.00E+00 2u: 0.00E+00 ir: 1.27E-06 iu: 0.00E+00 rsn:   0
  1 2r: 2.11E-09 2x: 6.45E+07 2u: 4.19E+01 ir: 5.04E-10 iu: 1.23E+00 rsn: rtol
 Step     28 Time=  8.00000E-01 Dt=  5.00000E-02 [y] snes_conv_reason:    3
  newton =   1 [      34] linear =   119 [      3898] cuts =  0 [   0]
  --> max chng: dpmx=   1.2283E+00 dtmpmx=   3.6599E-01

== TH FLOW =====================================================================
  0 2r: 4.78E-06 2x: 0.00E+00 2u: 0.00E+00 ir: 1.22E-06 iu: 0.00E+00 rsn:   0
  1 2r: 1.88E-09 2x: 6.45E+07 2u: 4.15E+01 ir: 4.46E-10 iu: 1.21E+00 rsn: rtol
 Step     29 Time=  8.50000E-01 Dt=  5.00000E-02 [y] snes_conv_reason:    3
  newton =   1 [      35] linear =   124 [      4022] cuts =  0 [   0]
  --> max chng: dpmx=   1.2094E+00 dtmpmx=   3.4779E-01

== TH FLOW =====================================================================
  0 2r: 4.66E-06 2x: 0.00E+00 2u: 0.00E+00 ir: 1.16E-06 iu: 0.00E+00 rsn:   0
  1 2r: 1.70E-09 2x: 6.45E+07 2u: 4.13E+01 ir: 3.97E-10 iu: 1.19E+00 rsn: rtol
 Step     30 Time=  9.00000E-01 Dt=  5.00000E-02 [y] snes_conv_reason:    3
  newton =   1 [      36] linear =   115 [      4137] cuts =  0 [   0]
  --> max chng: dpmx=   1.1925E+00 dtmpmx=   3.2993E-01

== TH FLOW =====================================================================
  0 2r: 4.56E-06 2x: 0.00E+00 2u: 0.00E+00 ir: 1.10E-06 iu: 0.00E+00 rsn:   0
  1 2r: 1.54E-09 2x: 6.45E+07 2u: 4.09E+01 ir: 3.51E-10 iu: 1.18E+00 rsn: rtol
 Step     31 Time=  9.50000E-01 Dt=  5.00000E-02 [y] snes_conv_reason:    3
  newton =   1 [      37] linear =   122 [      4259] cuts =  0 [   0]
  --> max chng: dpmx=   1.1761E+00 dtmpmx=   3.1852E-01

== TH FLOW =====================================================================
  0 2r: 4.46E-06 2x: 0.00E+00 2u: 0.00E+00 ir: 1.06E-06 iu: 0.00E+00 rsn:   0
  1 2r: 1.41E-09 2x: 6.45E+07 2u: 4.07E+01 ir: 3.09E-10 iu: 1.16E+00 rsn: rtol
 Step     32 Time=  1.00000E+00 Dt=  5.00000E-02 [y] snes_conv_reason:    3
  newton =   1 [      38] linear =   122 [      4381] cuts =  0 [   0]
  --> max chng: dpmx=   1.1618E+00 dtmpmx=   3.0505E-01

== TH FLOW =====================================================================
  0 2r: 4.37E-06 2x: 0.00E+00 2u: 0.00E+00 ir: 1.01E-06 iu: 0.00E+00 rsn:   0
  1 2r: 1.30E-09 2x: 6.45E+07 2u: 4.05E+01 ir: 2.84E-10 iu: 1.15E+00 rsn: rtol
 Step     33 Time=  1.05000E+00 Dt=  5.00000E-02 [y] snes_conv_reason:    3
  newton =   1 [      39] linear =   124 [      4505] cuts =  0 [   0]
  --> max chng: dpmx=   1.1480E+00 dtmpmx=   2.9349E-01

== TH FLOW =====================================================================
  0 2r: 4.29E-06 2x: 0.00E+00 2u: 0.00E+00 ir: 9.76E-07 iu: 0.00E+00 rsn:   0
  1 2r: 1.20E-09 2x: 6.45E+07 2u: 4.02E+01 ir: 2.59E-10 iu: 1.13E+00 rsn: rtol
 Step     34 Time=  1.10000E+00 Dt=  5.00000E-02 [y] snes_conv_reason:    3
  newton =   1 [      40] linear =   122 [      4627] cuts =  0 [   0]
  --> max chng: dpmx=   1.1342E+00 dtmpmx=   2.8435E-01

== TH FLOW =====================================================================
  0 2r: 4.21E-06 2x: 0.00E+00 2u: 0.00E+00 ir: 9.45E-07 iu: 0.00E+00 rsn:   0
  1 2r: 1.12E-09 2x: 6.45E+07 2u: 4.00E+01 ir: 2.33E-10 iu: 1.12E+00 rsn: rtol
 Step     35 Time=  1.15000E+00 Dt=  5.00000E-02 [y] snes_conv_reason:    3
  newton =   1 [      41] linear =   126 [      4753] cuts =  0 [   0]
  --> max chng: dpmx=   1.1232E+00 dtmpmx=   2.7360E-01

== TH FLOW =====================================================================
  0 2r: 4.14E-06 2x: 0.00E+00 2u: 0.00E+00 ir: 9.10E-07 iu: 0.00E+00 rsn:   0
  1 2r: 1.04E-09 2x: 6.45E+07 2u: 3.98E+01 ir: 2.15E-10 iu: 1.11E+00 rsn: rtol
 Step     36 Time=  1.20000E+00 Dt=  5.00000E-02 [y] snes_conv_reason:    3
  newton =   1 [      42] linear =   124 [      4877] cuts =  0 [   0]
  --> max chng: dpmx=   1.1125E+00 dtmpmx=   2.6590E-01

== TH FLOW =====================================================================
  0 2r: 4.08E-06 2x: 0.00E+00 2u: 0.00E+00 ir: 8.84E-07 iu: 0.00E+00 rsn:   0
  1 2r: 9.77E-10 2x: 6.45E+07 2u: 3.95E+01 ir: 1.99E-10 iu: 1.10E+00 rsn: rtol
 Step     37 Time=  1.25000E+00 Dt=  5.00000E-02 [y] snes_conv_reason:    3
  newton =   1 [      43] linear =   127 [      5004] cuts =  0 [   0]
  --> max chng: dpmx=   1.1024E+00 dtmpmx=   2.5817E-01

== TH FLOW =====================================================================
  0 2r: 4.02E-06 2x: 0.00E+00 2u: 0.00E+00 ir: 8.58E-07 iu: 0.00E+00 rsn:   0
  1 2r: 9.17E-10 2x: 6.45E+07 2u: 3.93E+01 ir: 1.82E-10 iu: 1.09E+00 rsn: rtol
 Step     38 Time=  1.30000E+00 Dt=  5.00000E-02 [y] snes_conv_reason:    3
  newton =   1 [      44] linear =   125 [      5129] cuts =  0 [   0]
  --> max chng: dpmx=   1.0934E+00 dtmpmx=   2.4937E-01

== TH FLOW =====================================================================
  0 2r: 3.96E-06 2x: 0.00E+00 2u: 0.00E+00 ir: 8.29E-07 iu: 0.00E+00 rsn:   0
  1 2r: 8.64E-10 2x: 6.45E+07 2u: 3.91E+01 ir: 1.68E-10 iu: 1.08E+00 rsn: rtol
 Step     39 Time=  1.35000E+00 Dt=  5.00000E-02 [y] snes_conv_reason:    3
  newton =   1 [      45] linear =   124 [      5253] cuts =  0 [   0]
  --> max chng: dpmx=   1.0837E+00 dtmpmx=   2.4399E-01

== TH FLOW =====================================================================
  0 2r: 3.91E-06 2x: 0.00E+00 2u: 0.00E+00 ir: 8.11E-07 iu: 0.00E+00 rsn:   0
  1 2r: 8.16E-10 2x: 6.45E+07 2u: 3.89E+01 ir: 1.58E-10 iu: 1.07E+00 rsn: rtol
 Step     40 Time=  1.40000E+00 Dt=  5.00000E-02 [y] snes_conv_reason:    3
  newton =   1 [      46] linear =   124 [      5377] cuts =  0 [   0]
  --> max chng: dpmx=   1.0749E+00 dtmpmx=   2.3725E-01

== TH FLOW =====================================================================
  0 2r: 3.86E-06 2x: 0.00E+00 2u: 0.00E+00 ir: 7.89E-07 iu: 0.00E+00 rsn:   0
  1 2r: 7.73E-10 2x: 6.45E+07 2u: 3.87E+01 ir: 1.47E-10 iu: 1.07E+00 rsn: rtol
 Step     41 Time=  1.45000E+00 Dt=  5.00000E-02 [y] snes_conv_reason:    3
  newton =   1 [      47] linear =   120 [      5497] cuts =  0 [   0]
  --> max chng: dpmx=   1.0663E+00 dtmpmx=   2.3095E-01

== TH FLOW =====================================================================
  0 2r: 3.81E-06 2x: 0.00E+00 2u: 0.00E+00 ir: 7.68E-07 iu: 0.00E+00 rsn:   0
  1 2r: 7.33E-10 2x: 6.45E+07 2u: 3.85E+01 ir: 1.36E-10 iu: 1.06E+00 rsn: rtol
 Step     42 Time=  1.50000E+00 Dt=  5.00000E-02 [y] snes_conv_reason:    3
  newton =   1 [      48] linear =   122 [      5619] cuts =  0 [   0]
  --> max chng: dpmx=   1.0583E+00 dtmpmx=   2.2602E-01

== TH FLOW =====================================================================
  0 2r: 3.77E-06 2x: 0.00E+00 2u: 0.00E+00 ir: 7.51E-07 iu: 0.00E+00 rsn:   0
  1 2r: 6.97E-10 2x: 6.45E+07 2u: 3.83E+01 ir: 1.29E-10 iu: 1.05E+00 rsn: rtol
 Step     43 Time=  1.55000E+00 Dt=  5.00000E-02 [y] snes_conv_reason:    3
  newton =   1 [      49] linear =   123 [      5742] cuts =  0 [   0]
  --> max chng: dpmx=   1.0511E+00 dtmpmx=   2.2000E-01

== TH FLOW =====================================================================
  0 2r: 3.72E-06 2x: 0.00E+00 2u: 0.00E+00 ir: 7.31E-07 iu: 0.00E+00 rsn:   0
  1 2r: 6.63E-10 2x: 6.45E+07 2u: 3.81E+01 ir: 1.21E-10 iu: 1.04E+00 rsn: rtol
 Step     44 Time=  1.60000E+00 Dt=  5.00000E-02 [y] snes_conv_reason:    3
  newton =   1 [      50] linear =   110 [      5852] cuts =  0 [   0]
  --> max chng: dpmx=   1.0435E+00 dtmpmx=   2.1549E-01

== TH FLOW =====================================================================
  0 2r: 3.68E-06 2x: 0.00E+00 2u: 0.00E+00 ir: 7.16E-07 iu: 0.00E+00 rsn:   0
  1 2r: 6.33E-10 2x: 6.45E+07 2u: 3.80E+01 ir: 1.12E-10 iu: 1.04E+00 rsn: rtol
 Step     45 Time=  1.65000E+00 Dt=  5.00000E-02 [y] snes_conv_reason:    3
  newton =   1 [      51] linear =   115 [      5967] cuts =  0 [   0]
  --> max chng: dpmx=   1.0372E+00 dtmpmx=   2.1092E-01

== TH FLOW =====================================================================
  0 2r: 3.64E-06 2x: 0.00E+00 2u: 0.00E+00 ir: 7.01E-07 iu: 0.00E+00 rsn:   0
  1 2r: 6.04E-10 2x: 6.45E+07 2u: 3.77E+01 ir: 1.07E-10 iu: 1.03E+00 rsn: rtol
 Step     46 Time=  1.70000E+00 Dt=  5.00000E-02 [y] snes_conv_reason:    3
  newton =   1 [      52] linear =   121 [      6088] cuts =  0 [   0]
  --> max chng: dpmx=   1.0294E+00 dtmpmx=   2.0560E-01

== TH FLOW =====================================================================
  0 2r: 3.61E-06 2x: 0.00E+00 2u: 0.00E+00 ir: 6.83E-07 iu: 0.00E+00 rsn:   0
  1 2r: 5.78E-10 2x: 6.45E+07 2u: 3.75E+01 ir: 1.01E-10 iu: 1.02E+00 rsn: rtol
 Step     47 Time=  1.75000E+00 Dt=  5.00000E-02 [y] snes_conv_reason:    3
  newton =   1 [      53] linear =   122 [      6210] cuts =  0 [   0]
  --> max chng: dpmx=   1.0223E+00 dtmpmx=   2.0225E-01

== TH FLOW =====================================================================
  0 2r: 3.57E-06 2x: 0.00E+00 2u: 0.00E+00 ir: 6.72E-07 iu: 0.00E+00 rsn:   0
  1 2r: 6.28E-10 2x: 6.45E+07 2u: 3.73E+01 ir: 2.11E-10 iu: 1.02E+00 rsn: rtol
 Step     48 Time=  1.80000E+00 Dt=  5.00000E-02 [y] snes_conv_reason:    3
  newton =   1 [      54] linear =   120 [      6330] cuts =  0 [   0]
  --> max chng: dpmx=   1.0163E+00 dtmpmx=   1.9799E-01

== TH FLOW =====================================================================
  0 2r: 3.54E-06 2x: 0.00E+00 2u: 0.00E+00 ir: 6.58E-07 iu: 0.00E+00 rsn:   0
  1 2r: 6.63E-10 2x: 6.45E+07 2u: 3.72E+01 ir: 2.64E-10 iu: 1.01E+00 rsn: rtol
 Step     49 Time=  1.85000E+00 Dt=  5.00000E-02 [y] snes_conv_reason:    3
  newton =   1 [      55] linear =   123 [      6453] cuts =  0 [   0]
  --> max chng: dpmx=   1.0107E+00 dtmpmx=   1.9399E-01

== TH FLOW =====================================================================
  0 2r: 3.50E-06 2x: 0.00E+00 2u: 0.00E+00 ir: 6.45E-07 iu: 0.00E+00 rsn:   0
  1 2r: 5.23E-10 2x: 6.45E+07 2u: 3.69E+01 ir: 9.05E-11 iu: 1.00E+00 rsn: rtol
 Step     50 Time=  1.90000E+00 Dt=  5.00000E-02 [y] snes_conv_reason:    3
  newton =   1 [      56] linear =   123 [      6576] cuts =  0 [   0]
  --> max chng: dpmx=   1.0041E+00 dtmpmx=   1.9075E-01

== TH FLOW =====================================================================
  0 2r: 3.47E-06 2x: 0.00E+00 2u: 0.00E+00 ir: 6.34E-07 iu: 0.00E+00 rsn:   0
  1 2r: 4.91E-10 2x: 6.45E+07 2u: 3.68E+01 ir: 8.11E-11 iu: 9.98E-01 rsn: itol_upd
 Step     51 Time=  1.95000E+00 Dt=  5.00000E-02 [y] snes_conv_reason:   11
  newton =   1 [      57] linear =   118 [      6694] cuts =  0 [   0]
  --> max chng: dpmx=   9.9795E-01 dtmpmx=   1.8674E-01

== TH FLOW =====================================================================
  0 2r: 3.44E-06 2x: 0.00E+00 2u: 0.00E+00 ir: 6.21E-07 iu: 0.00E+00 rsn:   0
  1 2r: 4.81E-10 2x: 6.45E+07 2u: 3.66E+01 ir: 7.76E-11 iu: 9.92E-01 rsn: itol_upd
 Step     52 Time=  2.00000E+00 Dt=  5.00000E-02 [y] snes_conv_reason:   11
  newton =   1 [      58] linear =   121 [      6815] cuts =  0 [   0]
  --> max chng: dpmx=   9.9247E-01 dtmpmx=   1.8376E-01

== TH FLOW =====================================================================
  0 2r: 3.41E-06 2x: 0.00E+00 2u: 0.00E+00 ir: 6.11E-07 iu: 0.00E+00 rsn:   0
  1 2r: 4.55E-10 2x: 6.45E+07 2u: 3.64E+01 ir: 7.41E-11 iu: 9.86E-01 rsn: itol_upd
 Step     53 Time=  2.05000E+00 Dt=  5.00000E-02 [y] snes_conv_reason:   11
  newton =   1 [      59] linear =   121 [      6936] cuts =  0 [   0]
  --> max chng: dpmx=   9.8627E-01 dtmpmx=   1.8063E-01

== TH FLOW =====================================================================
  0 2r: 3.38E-06 2x: 0.00E+00 2u: 0.00E+00 ir: 6.00E-07 iu: 0.00E+00 rsn:   0
  1 2r: 4.38E-10 2x: 6.45E+07 2u: 3.62E+01 ir: 7.01E-11 iu: 9.81E-01 rsn: itol_upd
 Step     54 Time=  2.10000E+00 Dt=  5.00000E-02 [y] snes_conv_reason:   11
  newton =   1 [      60] linear =   121 [      7057] cuts =  0 [   0]
  --> max chng: dpmx=   9.8110E-01 dtmpmx=   1.7704E-01

== TH FLOW =====================================================================
  0 2r: 3.36E-06 2x: 0.00E+00 2u: 0.00E+00 ir: 5.89E-07 iu: 0.00E+00 rsn:   0
  1 2r: 5.25E-10 2x: 6.45E+07 2u: 3.60E+01 ir: 2.22E-10 iu: 9.75E-01 rsn: itol_upd
 Step     55 Time=  2.15000E+00 Dt=  5.00000E-02 [y] snes_conv_reason:   11
  newton =   1 [      61] linear =   118 [      7175] cuts =  0 [   0]
  --> max chng: dpmx=   9.7511E-01 dtmpmx=   1.7467E-01

== TH FLOW =====================================================================
  0 2r: 3.33E-06 2x: 0.00E+00 2u: 0.00E+00 ir: 5.81E-07 iu: 0.00E+00 rsn:   0
  1 2r: 4.09E-10 2x: 6.45E+07 2u: 3.59E+01 ir: 6.44E-11 iu: 9.70E-01 rsn: itol_upd
 Step     56 Time=  2.20000E+00 Dt=  5.00000E-02 [y] snes_conv_reason:   11
  newton =   1 [      62] linear =   121 [      7296] cuts =  0 [   0]
  --> max chng: dpmx=   9.6975E-01 dtmpmx=   1.7164E-01

== TH FLOW =====================================================================
  0 2r: 3.30E-06 2x: 0.00E+00 2u: 0.00E+00 ir: 5.71E-07 iu: 0.00E+00 rsn:   0
  1 2r: 4.14E-10 2x: 6.45E+07 2u: 3.57E+01 ir: 9.26E-11 iu: 9.65E-01 rsn: itol_upd
 Step     57 Time=  2.25000E+00 Dt=  5.00000E-02 [y] snes_conv_reason:   11
  newton =   1 [      63] linear =   123 [      7419] cuts =  0 [   0]
  --> max chng: dpmx=   9.6460E-01 dtmpmx=   1.6886E-01

== TH FLOW =====================================================================
  0 2r: 3.28E-06 2x: 0.00E+00 2u: 0.00E+00 ir: 5.61E-07 iu: 0.00E+00 rsn:   0
  1 2r: 3.82E-10 2x: 6.45E+07 2u: 3.55E+01 ir: 5.89E-11 iu: 9.60E-01 rsn: itol_upd
 Step     58 Time=  2.30000E+00 Dt=  5.00000E-02 [y] snes_conv_reason:   11
  newton =   1 [      64] linear =   118 [      7537] cuts =  0 [   0]
  --> max chng: dpmx=   9.5984E-01 dtmpmx=   1.6650E-01

== TH FLOW =====================================================================
  0 2r: 3.25E-06 2x: 0.00E+00 2u: 0.00E+00 ir: 5.54E-07 iu: 0.00E+00 rsn:   0
  1 2r: 3.70E-10 2x: 6.45E+07 2u: 3.53E+01 ir: 5.66E-11 iu: 9.54E-01 rsn: itol_upd
 Step     59 Time=  2.35000E+00 Dt=  5.00000E-02 [y] snes_conv_reason:   11
  newton =   1 [      65] linear =   121 [      7658] cuts =  0 [   0]
  --> max chng: dpmx=   9.5422E-01 dtmpmx=   1.6357E-01

== TH FLOW =====================================================================
  0 2r: 3.23E-06 2x: 0.00E+00 2u: 0.00E+00 ir: 5.44E-07 iu: 0.00E+00 rsn:   0
  1 2r: 3.98E-10 2x: 6.45E+07 2u: 3.51E+01 ir: 1.24E-10 iu: 9.49E-01 rsn: itol_upd
 Step     60 Time=  2.40000E+00 Dt=  5.00000E-02 [y] snes_conv_reason:   11
  newton =   1 [      66] linear =   123 [      7781] cuts =  0 [   0]
  --> max chng: dpmx=   9.4892E-01 dtmpmx=   1.6146E-01

== TH FLOW =====================================================================
  0 2r: 3.21E-06 2x: 0.00E+00 2u: 0.00E+00 ir: 5.37E-07 iu: 0.00E+00 rsn:   0
  1 2r: 3.47E-10 2x: 6.45E+07 2u: 3.50E+01 ir: 5.20E-11 iu: 9.44E-01 rsn: itol_upd
 Step     61 Time=  2.45000E+00 Dt=  5.00000E-02 [y] snes_conv_reason:   11
  newton =   1 [      67] linear =   117 [      7898] cuts =  0 [   0]
  --> max chng: dpmx=   9.4400E-01 dtmpmx=   1.5912E-01

== TH FLOW =====================================================================
  0 2r: 3.18E-06 2x: 0.00E+00 2u: 0.00E+00 ir: 5.29E-07 iu: 0.00E+00 rsn:   0
  1 2r: 3.37E-10 2x: 6.45E+07 2u: 3.48E+01 ir: 5.01E-11 iu: 9.39E-01 rsn: itol_upd
 Step     62 Time=  2.50000E+00 Dt=  5.00000E-02 [y] snes_conv_reason:   11
  newton =   1 [      68] linear =   122 [      8020] cuts =  0 [   0]
  --> max chng: dpmx=   9.3940E-01 dtmpmx=   1.5653E-01

== TH FLOW =====================================================================
  0 2r: 3.16E-06 2x: 0.00E+00 2u: 0.00E+00 ir: 5.20E-07 iu: 0.00E+00 rsn:   0
  1 2r: 3.64E-10 2x: 6.45E+07 2u: 3.46E+01 ir: 1.15E-10 iu: 9.34E-01 rsn: itol_upd
 Step     63 Time=  2.55000E+00 Dt=  5.00000E-02 [y] snes_conv_reason:   11
  newton =   1 [      69] linear =   122 [      8142] cuts =  0 [   0]
  --> max chng: dpmx=   9.3380E-01 dtmpmx=   1.5472E-01

== TH FLOW =====================================================================
  0 2r: 3.14E-06 2x: 0.00E+00 2u: 0.00E+00 ir: 5.14E-07 iu: 0.00E+00 rsn:   0
  1 2r: 3.17E-10 2x: 6.45E+07 2u: 3.45E+01 ir: 4.63E-11 iu: 9.30E-01 rsn: itol_upd
 Step     64 Time=  2.60000E+00 Dt=  5.00000E-02 [y] snes_conv_reason:   11
  newton =   1 [      70] linear =   112 [      8254] cuts =  0 [   0]
  --> max chng: dpmx=   9.2982E-01 dtmpmx=   1.5241E-01

== TH FLOW =====================================================================
  0 2r: 3.12E-06 2x: 0.00E+00 2u: 0.00E+00 ir: 5.07E-07 iu: 0.00E+00 rsn:   0
  1 2r: 3.08E-10 2x: 6.45E+07 2u: 3.43E+01 ir: 4.47E-11 iu: 9.25E-01 rsn: itol_upd
 Step     65 Time=  2.65000E+00 Dt=  5.00000E-02 [y] snes_conv_reason:   11
  newton =   1 [      71] linear =   121 [      8375] cuts =  0 [   0]
  --> max chng: dpmx=   9.2490E-01 dtmpmx=   1.5037E-01

== TH FLOW =====================================================================
  0 2r: 3.10E-06 2x: 0.00E+00 2u: 0.00E+00 ir: 5.00E-07 iu: 0.00E+00 rsn:   0
  1 2r: 3.21E-10 2x: 6.45E+07 2u: 3.41E+01 ir: 8.17E-11 iu: 9.19E-01 rsn: itol_upd
 Step     66 Time=  2.70000E+00 Dt=  5.00000E-02 [y] snes_conv_reason:   11
  newton =   1 [      72] linear =   119 [      8494] cuts =  0 [   0]
  --> max chng: dpmx=   9.1939E-01 dtmpmx=   1.4854E-01

== TH FLOW =====================================================================
  0 2r: 3.08E-06 2x: 0.00E+00 2u: 0.00E+00 ir: 4.94E-07 iu: 0.00E+00 rsn:   0
  1 2r: 2.91E-10 2x: 6.45E+07 2u: 3.39E+01 ir: 4.14E-11 iu: 9.16E-01 rsn: itol_upd
 Step     67 Time=  2.75000E+00 Dt=  5.00000E-02 [y] snes_conv_reason:   11
  newton =   1 [      73] linear =   114 [      8608] cuts =  0 [   0]
  --> max chng: dpmx=   9.1570E-01 dtmpmx=   1.4627E-01

== TH FLOW =====================================================================
  0 2r: 3.06E-06 2x: 0.00E+00 2u: 0.00E+00 ir: 4.86E-07 iu: 0.00E+00 rsn:   0
  1 2r: 2.84E-10 2x: 6.45E+07 2u: 3.38E+01 ir: 4.01E-11 iu: 9.11E-01 rsn: itol_upd
 Step     68 Time=  2.80000E+00 Dt=  5.00000E-02 [y] snes_conv_reason:   11
  newton =   1 [      74] linear =   123 [      8731] cuts =  0 [   0]
  --> max chng: dpmx=   9.1095E-01 dtmpmx=   1.4470E-01

== TH FLOW =====================================================================
  0 2r: 3.04E-06 2x: 0.00E+00 2u: 0.00E+00 ir: 4.81E-07 iu: 0.00E+00 rsn:   0
  1 2r: 2.80E-10 2x: 6.45E+07 2u: 3.36E+01 ir: 3.85E-11 iu: 9.06E-01 rsn: itol_upd
 Step     69 Time=  2.85000E+00 Dt=  5.00000E-02 [y] snes_conv_reason:   11
  newton =   1 [      75] linear =   121 [      8852] cuts =  0 [   0]
  --> max chng: dpmx=   9.0633E-01 dtmpmx=   1.4286E-01

== TH FLOW =====================================================================
  0 2r: 3.03E-06 2x: 0.00E+00 2u: 0.00E+00 ir: 4.75E-07 iu: 0.00E+00 rsn:   0
  1 2r: 2.69E-10 2x: 6.45E+07 2u: 3.34E+01 ir: 3.73E-11 iu: 9.02E-01 rsn: itol_upd
 Step     70 Time=  2.90000E+00 Dt=  5.00000E-02 [y] snes_conv_reason:   11
  newton =   1 [      76] linear =   120 [      8972] cuts =  0 [   0]
  --> max chng: dpmx=   9.0153E-01 dtmpmx=   1.4090E-01

== TH FLOW =====================================================================
  0 2r: 3.01E-06 2x: 0.00E+00 2u: 0.00E+00 ir: 4.68E-07 iu: 0.00E+00 rsn:   0
  1 2r: 2.62E-10 2x: 6.45E+07 2u: 3.32E+01 ir: 3.63E-11 iu: 8.97E-01 rsn: itol_upd
 Step     71 Time=  2.95000E+00 Dt=  5.00000E-02 [y] snes_conv_reason:   11
  newton =   1 [      77] linear =   118 [      9090] cuts =  0 [   0]
  --> max chng: dpmx=   8.9712E-01 dtmpmx=   1.3945E-01

== TH FLOW =====================================================================
  0 2r: 2.99E-06 2x: 0.00E+00 2u: 0.00E+00 ir: 4.64E-07 iu: 0.00E+00 rsn:   0
  1 2r: 2.55E-10 2x: 6.45E+07 2u: 3.31E+01 ir: 3.48E-11 iu: 8.93E-01 rsn: itol_upd
 Step     72 Time=  3.00000E+00 Dt=  5.00000E-02 [y] snes_conv_reason:   11
  newton =   1 [      78] linear =   123 [      9213] cuts =  0 [   0]
  --> max chng: dpmx=   8.9264E-01 dtmpmx=   1.3761E-01

== TH FLOW =====================================================================
  0 2r: 2.97E-06 2x: 0.00E+00 2u: 0.00E+00 ir: 4.58E-07 iu: 0.00E+00 rsn:   0
  1 2r: 2.56E-10 2x: 6.45E+07 2u: 3.29E+01 ir: 4.23E-11 iu: 8.88E-01 rsn: itol_upd
 Step     73 Time=  3.05000E+00 Dt=  5.00000E-02 [y] snes_conv_reason:   11
  newton =   1 [      79] linear =   122 [      9335] cuts =  0 [   0]
  --> max chng: dpmx=   8.8797E-01 dtmpmx=   1.3606E-01

== TH FLOW =====================================================================
  0 2r: 2.96E-06 2x: 0.00E+00 2u: 0.00E+00 ir: 4.52E-07 iu: 0.00E+00 rsn:   0
  1 2r: 2.43E-10 2x: 6.45E+07 2u: 3.28E+01 ir: 3.27E-11 iu: 8.84E-01 rsn: itol_upd
 Step     74 Time=  3.10000E+00 Dt=  5.00000E-02 [y] snes_conv_reason:   11
  newton =   1 [      80] linear =   122 [      9457] cuts =  0 [   0]
  --> max chng: dpmx=   8.8396E-01 dtmpmx=   1.3458E-01

== TH FLOW =====================================================================
  0 2r: 2.94E-06 2x: 0.00E+00 2u: 0.00E+00 ir: 4.47E-07 iu: 0.00E+00 rsn:   0
  1 2r: 2.37E-10 2x: 6.45E+07 2u: 3.26E+01 ir: 3.15E-11 iu: 8.80E-01 rsn: itol_upd
 Step     75 Time=  3.15000E+00 Dt=  5.00000E-02 [y] snes_conv_reason:   11
  newton =   1 [      81] linear =   118 [      9575] cuts =  0 [   0]
  --> max chng: dpmx=   8.7954E-01 dtmpmx=   1.3275E-01

== TH FLOW =====================================================================
  0 2r: 2.92E-06 2x: 0.00E+00 2u: 0.00E+00 ir: 4.41E-07 iu: 0.00E+00 rsn:   0
  1 2r: 2.31E-10 2x: 6.45E+07 2u: 3.24E+01 ir: 3.07E-11 iu: 8.76E-01 rsn: itol_upd
 Step     76 Time=  3.20000E+00 Dt=  5.00000E-02 [y] snes_conv_reason:   11
  newton =   1 [      82] linear =   120 [      9695] cuts =  0 [   0]
  --> max chng: dpmx=   8.7562E-01 dtmpmx=   1.3153E-01

== TH FLOW =====================================================================
  0 2r: 2.91E-06 2x: 0.00E+00 2u: 0.00E+00 ir: 4.37E-07 iu: 0.00E+00 rsn:   0
  1 2r: 2.27E-10 2x: 6.45E+07 2u: 3.23E+01 ir: 2.98E-11 iu: 8.71E-01 rsn: itol_upd
 Step     77 Time=  3.25000E+00 Dt=  5.00000E-02 [y] snes_conv_reason:   11
  newton =   1 [      83] linear =   121 [      9816] cuts =  0 [   0]
  --> max chng: dpmx=   8.7111E-01 dtmpmx=   1.3003E-01

== TH FLOW =====================================================================
  0 2r: 2.89E-06 2x: 0.00E+00 2u: 0.00E+00 ir: 4.32E-07 iu: 0.00E+00 rsn:   0
  1 2r: 2.20E-10 2x: 6.45E+07 2u: 3.21E+01 ir: 2.87E-11 iu: 8.67E-01 rsn: itol_upd
 Step     78 Time=  3.30000E+00 Dt=  5.00000E-02 [y] snes_conv_reason:   11
  newton =   1 [      84] linear =   121 [      9937] cuts =  0 [   0]
  --> max chng: dpmx=   8.6670E-01 dtmpmx=   1.2850E-01

== TH FLOW =====================================================================
  0 2r: 2.88E-06 2x: 0.00E+00 2u: 0.00E+00 ir: 4.27E-07 iu: 0.00E+00 rsn:   0
  1 2r: 2.15E-10 2x: 6.45E+07 2u: 3.19E+01 ir: 2.80E-11 iu: 8.62E-01 rsn: itol_upd
 Step     79 Time=  3.35000E+00 Dt=  5.00000E-02 [y] snes_conv_reason:   11
  newton =   1 [      85] linear =   114 [     10051] cuts =  0 [   0]
  --> max chng: dpmx=   8.6210E-01 dtmpmx=   1.2730E-01

== TH FLOW =====================================================================
  0 2r: 2.86E-06 2x: 0.00E+00 2u: 0.00E+00 ir: 4.23E-07 iu: 0.00E+00 rsn:   0
  1 2r: 2.11E-10 2x: 6.45E+07 2u: 3.18E+01 ir: 2.72E-11 iu: 8.59E-01 rsn: itol_upd
 Step     80 Time=  3.40000E+00 Dt=  5.00000E-02 [y] snes_conv_reason:   11
  newton =   1 [      86] linear =   120 [     10171] cuts =  0 [   0]
  --> max chng: dpmx=   8.5878E-01 dtmpmx=   1.2579E-01

== TH FLOW =====================================================================
  0 2r: 2.85E-06 2x: 0.00E+00 2u: 0.00E+00 ir: 4.18E-07 iu: 0.00E+00 rsn:   0
  1 2r: 2.06E-10 2x: 6.45E+07 2u: 3.16E+01 ir: 2.63E-11 iu: 8.54E-01 rsn: itol_upd
 Step     81 Time=  3.45000E+00 Dt=  5.00000E-02 [y] snes_conv_reason:   11
  newton =   1 [      87] linear =   118 [     10289] cuts =  0 [   0]
  --> max chng: dpmx=   8.5402E-01 dtmpmx=   1.2456E-01

== TH FLOW =====================================================================
  0 2r: 2.83E-06 2x: 0.00E+00 2u: 0.00E+00 ir: 4.14E-07 iu: 0.00E+00 rsn:   0
  1 2r: 2.01E-10 2x: 6.45E+07 2u: 3.15E+01 ir: 2.57E-11 iu: 8.50E-01 rsn: itol_upd
 Step     82 Time=  3.50000E+00 Dt=  5.00000E-02 [y] snes_conv_reason:   11
  newton =   1 [      88] linear =   119 [     10408] cuts =  0 [   0]
  --> max chng: dpmx=   8.4987E-01 dtmpmx=   1.2333E-01

== TH FLOW =====================================================================
  0 2r: 2.82E-06 2x: 0.00E+00 2u: 0.00E+00 ir: 4.10E-07 iu: 0.00E+00 rsn:   0
  1 2r: 1.97E-10 2x: 6.45E+07 2u: 3.13E+01 ir: 2.50E-11 iu: 8.46E-01 rsn: itol_upd
 Step     83 Time=  3.55000E+00 Dt=  5.00000E-02 [y] snes_conv_reason:   11
  newton =   1 [      89] linear =   115 [     10523] cuts =  0 [   0]
  --> max chng: dpmx=   8.4583E-01 dtmpmx=   1.2182E-01

== TH FLOW =====================================================================
  0 2r: 2.81E-06 2x: 0.00E+00 2u: 0.00E+00 ir: 4.05E-07 iu: 0.00E+00 rsn:   0
  1 2r: 1.93E-10 2x: 6.45E+07 2u: 3.11E+01 ir: 2.42E-11 iu: 8.42E-01 rsn: itol_upd
 Step     84 Time=  3.60000E+00 Dt=  5.00000E-02 [y] snes_conv_reason:   11
  newton =   1 [      90] linear =   120 [     10643] cuts =  0 [   0]
  --> max chng: dpmx=   8.4192E-01 dtmpmx=   1.2085E-01

== TH FLOW =====================================================================
  0 2r: 2.79E-06 2x: 0.00E+00 2u: 0.00E+00 ir: 4.02E-07 iu: 0.00E+00 rsn:   0
  1 2r: 1.89E-10 2x: 6.45E+07 2u: 3.10E+01 ir: 2.37E-11 iu: 8.38E-01 rsn: itol_upd
 Step     85 Time=  3.65000E+00 Dt=  5.00000E-02 [y] snes_conv_reason:   11
  newton =   1 [      91] linear =   113 [     10756] cuts =  0 [   0]
  --> max chng: dpmx=   8.3763E-01 dtmpmx=   1.1959E-01

== TH FLOW =====================================================================
  0 2r: 2.78E-06 2x: 0.00E+00 2u: 0.00E+00 ir: 3.98E-07 iu: 0.00E+00 rsn:   0
  1 2r: 1.85E-10 2x: 6.45E+07 2u: 3.08E+01 ir: 2.30E-11 iu: 8.33E-01 rsn: itol_upd
 Step     86 Time=  3.70000E+00 Dt=  5.00000E-02 [y] snes_conv_reason:   11
  newton =   1 [      92] linear =   118 [     10874] cuts =  0 [   0]
  --> max chng: dpmx=   8.3320E-01 dtmpmx=   1.1836E-01

== TH FLOW =====================================================================
  0 2r: 2.77E-06 2x: 0.00E+00 2u: 0.00E+00 ir: 3.93E-07 iu: 0.00E+00 rsn:   0
  1 2r: 1.81E-10 2x: 6.45E+07 2u: 3.07E+01 ir: 2.23E-11 iu: 8.30E-01 rsn: itol_upd
 Step     87 Time=  3.75000E+00 Dt=  5.00000E-02 [y] snes_conv_reason:   11
  newton =   1 [      93] linear =   117 [     10991] cuts =  0 [   0]
  --> max chng: dpmx=   8.2999E-01 dtmpmx=   1.1735E-01

== TH FLOW =====================================================================
  0 2r: 2.75E-06 2x: 0.00E+00 2u: 0.00E+00 ir: 3.90E-07 iu: 0.00E+00 rsn:   0
  1 2r: 1.77E-10 2x: 6.45E+07 2u: 3.05E+01 ir: 2.18E-11 iu: 8.26E-01 rsn: itol_upd
 Step     88 Time=  3.80000E+00 Dt=  5.00000E-02 [y] snes_conv_reason:   11
  newton =   1 [      94] linear =   119 [     11110] cuts =  0 [   0]
  --> max chng: dpmx=   8.2596E-01 dtmpmx=   1.1607E-01

== TH FLOW =====================================================================
  0 2r: 2.74E-06 2x: 0.00E+00 2u: 0.00E+00 ir: 3.86E-07 iu: 0.00E+00 rsn:   0
  1 2r: 1.74E-10 2x: 6.45E+07 2u: 3.03E+01 ir: 2.12E-11 iu: 8.21E-01 rsn: itol_upd
 Step     89 Time=  3.85000E+00 Dt=  5.00000E-02 [y] snes_conv_reason:   11
  newton =   1 [      95] linear =   121 [     11231] cuts =  0 [   0]
  --> max chng: dpmx=   8.2102E-01 dtmpmx=   1.1508E-01

== TH FLOW =====================================================================
  0 2r: 2.73E-06 2x: 0.00E+00 2u: 0.00E+00 ir: 3.83E-07 iu: 0.00E+00 rsn:   0
  1 2r: 1.70E-10 2x: 6.45E+07 2u: 3.02E+01 ir: 2.07E-11 iu: 8.17E-01 rsn: itol_upd
 Step     90 Time=  3.90000E+00 Dt=  5.00000E-02 [y] snes_conv_reason:   11
  newton =   1 [      96] linear =   113 [     11344] cuts =  0 [   0]
  --> max chng: dpmx=   8.1736E-01 dtmpmx=   1.1403E-01

== TH FLOW =====================================================================
  0 2r: 2.72E-06 2x: 0.00E+00 2u: 0.00E+00 ir: 3.79E-07 iu: 0.00E+00 rsn:   0
  1 2r: 1.67E-10 2x: 6.45E+07 2u: 3.01E+01 ir: 2.02E-11 iu: 8.14E-01 rsn: itol_upd
 Step     91 Time=  3.95000E+00 Dt=  5.00000E-02 [y] snes_conv_reason:   11
  newton =   1 [      97] linear =   119 [     11463] cuts =  0 [   0]
  --> max chng: dpmx=   8.1411E-01 dtmpmx=   1.1281E-01

== TH FLOW =====================================================================
  0 2r: 2.70E-06 2x: 0.00E+00 2u: 0.00E+00 ir: 3.75E-07 iu: 0.00E+00 rsn:   0
  1 2r: 1.64E-10 2x: 6.45E+07 2u: 2.99E+01 ir: 1.97E-11 iu: 8.10E-01 rsn: itol_upd
 Step     92 Time=  4.00000E+00 Dt=  5.00000E-02 [y] snes_conv_reason:   11
  newton =   1 [      98] linear =   117 [     11580] cuts =  0 [   0]
  --> max chng: dpmx=   8.0990E-01 dtmpmx=   1.1197E-01

== TH FLOW =====================================================================
  0 2r: 2.69E-06 2x: 0.00E+00 2u: 0.00E+00 ir: 3.72E-07 iu: 0.00E+00 rsn:   0
  1 2r: 1.60E-10 2x: 6.45E+07 2u: 2.97E+01 ir: 1.92E-11 iu: 8.05E-01 rsn: itol_upd
 Step     93 Time=  4.05000E+00 Dt=  5.00000E-02 [y] snes_conv_reason:   11
  newton =   1 [      99] linear =   119 [     11699] cuts =  0 [   0]
  --> max chng: dpmx=   8.0502E-01 dtmpmx=   1.1089E-01

== TH FLOW =====================================================================
  0 2r: 2.68E-06 2x: 0.00E+00 2u: 0.00E+00 ir: 3.69E-07 iu: 0.00E+00 rsn:   0
  1 2r: 1.57E-10 2x: 6.45E+07 2u: 2.96E+01 ir: 1.87E-11 iu: 8.02E-01 rsn: itol_upd
 Step     94 Time=  4.10000E+00 Dt=  5.00000E-02 [y] snes_conv_reason:   11
  newton =   1 [     100] linear =   122 [     11821] cuts =  0 [   0]
  --> max chng: dpmx=   8.0200E-01 dtmpmx=   1.0989E-01

== TH FLOW =====================================================================
  0 2r: 2.67E-06 2x: 0.00E+00 2u: 0.00E+00 ir: 3.65E-07 iu: 0.00E+00 rsn:   0
  1 2r: 1.55E-10 2x: 6.45E+07 2u: 2.94E+01 ir: 1.83E-11 iu: 7.98E-01 rsn: itol_upd
 Step     95 Time=  4.15000E+00 Dt=  5.00000E-02 [y] snes_conv_reason:   11
  newton =   1 [     101] linear =   119 [     11940] cuts =  0 [   0]
  --> max chng: dpmx=   7.9791E-01 dtmpmx=   1.0901E-01

== TH FLOW =====================================================================
  0 2r: 2.66E-06 2x: 0.00E+00 2u: 0.00E+00 ir: 3.62E-07 iu: 0.00E+00 rsn:   0
  1 2r: 1.51E-10 2x: 6.45E+07 2u: 2.93E+01 ir: 1.78E-11 iu: 7.94E-01 rsn: itol_upd
 Step     96 Time=  4.20000E+00 Dt=  5.00000E-02 [y] snes_conv_reason:   11
  newton =   1 [     102] linear =   115 [     12055] cuts =  0 [   0]
  --> max chng: dpmx=   7.9391E-01 dtmpmx=   1.0791E-01

== TH FLOW =====================================================================
  0 2r: 2.65E-06 2x: 0.00E+00 2u: 0.00E+00 ir: 3.59E-07 iu: 0.00E+00 rsn:   0
  1 2r: 1.49E-10 2x: 6.45E+07 2u: 2.92E+01 ir: 1.74E-11 iu: 7.90E-01 rsn: itol_upd
 Step     97 Time=  4.25000E+00 Dt=  5.00000E-02 [y] snes_conv_reason:   11
  newton =   1 [     103] linear =   118 [     12173] cuts =  0 [   0]
  --> max chng: dpmx=   7.9008E-01 dtmpmx=   1.0710E-01

== TH FLOW =====================================================================
  0 2r: 2.64E-06 2x: 0.00E+00 2u: 0.00E+00 ir: 3.56E-07 iu: 0.00E+00 rsn:   0
  1 2r: 1.46E-10 2x: 6.45E+07 2u: 2.90E+01 ir: 1.70E-11 iu: 7.87E-01 rsn: itol_upd
 Step     98 Time=  4.30000E+00 Dt=  5.00000E-02 [y] snes_conv_reason:   11
  newton =   1 [     104] linear =   119 [     12292] cuts =  0 [   0]
  --> max chng: dpmx=   7.8656E-01 dtmpmx=   1.0619E-01

== TH FLOW =====================================================================
  0 2r: 2.63E-06 2x: 0.00E+00 2u: 0.00E+00 ir: 3.53E-07 iu: 0.00E+00 rsn:   0
  1 2r: 1.43E-10 2x: 6.45E+07 2u: 2.89E+01 ir: 1.66E-11 iu: 7.82E-01 rsn: itol_upd
 Step     99 Time=  4.35000E+00 Dt=  5.00000E-02 [y] snes_conv_reason:   11
  newton =   1 [     105] linear =   121 [     12413] cuts =  0 [   0]
  --> max chng: dpmx=   7.8241E-01 dtmpmx=   1.0518E-01

== TH FLOW =====================================================================
  0 2r: 2.61E-06 2x: 0.00E+00 2u: 0.00E+00 ir: 3.50E-07 iu: 0.00E+00 rsn:   0
  1 2r: 1.41E-10 2x: 6.45E+07 2u: 2.87E+01 ir: 1.63E-11 iu: 7.79E-01 rsn: itol_upd
 Step    100 Time=  4.40000E+00 Dt=  5.00000E-02 [y] snes_conv_reason:   11
  newton =   1 [     106] linear =   120 [     12533] cuts =  0 [   0]
  --> max chng: dpmx=   7.7866E-01 dtmpmx=   1.0445E-01

== TH FLOW =====================================================================
  0 2r: 2.60E-06 2x: 0.00E+00 2u: 0.00E+00 ir: 3.47E-07 iu: 0.00E+00 rsn:   0
  1 2r: 1.38E-10 2x: 6.45E+07 2u: 2.86E+01 ir: 1.58E-11 iu: 7.75E-01 rsn: itol_upd
 Step    101 Time=  4.45000E+00 Dt=  5.00000E-02 [y] snes_conv_reason:   11
  newton =   1 [     107] linear =   119 [     12652] cuts =  0 [   0]
  --> max chng: dpmx=   7.7455E-01 dtmpmx=   1.0351E-01

== TH FLOW =====================================================================
  0 2r: 2.59E-06 2x: 0.00E+00 2u: 0.00E+00 ir: 3.44E-07 iu: 0.00E+00 rsn:   0
  1 2r: 1.36E-10 2x: 6.45E+07 2u: 2.84E+01 ir: 1.55E-11 iu: 7.71E-01 rsn: itol_upd
 Step    102 Time=  4.50000E+00 Dt=  5.00000E-02 [y] snes_conv_reason:   11
  newton =   1 [     108] linear =   121 [     12773] cuts =  0 [   0]
  --> max chng: dpmx=   7.7063E-01 dtmpmx=   1.0267E-01

== TH FLOW =====================================================================
  0 2r: 2.58E-06 2x: 0.00E+00 2u: 0.00E+00 ir: 3.41E-07 iu: 0.00E+00 rsn:   0
  1 2r: 1.33E-10 2x: 6.45E+07 2u: 2.83E+01 ir: 1.52E-11 iu: 7.67E-01 rsn: itol_upd
 Step    103 Time=  4.55000E+00 Dt=  5.00000E-02 [y] snes_conv_reason:   11
  newton =   1 [     109] linear =   118 [     12891] cuts =  0 [   0]
  --> max chng: dpmx=   7.6750E-01 dtmpmx=   1.0190E-01

== TH FLOW =====================================================================
  0 2r: 2.57E-06 2x: 0.00E+00 2u: 0.00E+00 ir: 3.39E-07 iu: 0.00E+00 rsn:   0
  1 2r: 1.31E-10 2x: 6.45E+07 2u: 2.82E+01 ir: 1.48E-11 iu: 7.63E-01 rsn: itol_upd
 Step    104 Time=  4.60000E+00 Dt=  5.00000E-02 [y] snes_conv_reason:   11
  newton =   1 [     110] linear =   120 [     13011] cuts =  0 [   0]
  --> max chng: dpmx=   7.6341E-01 dtmpmx=   1.0095E-01

== TH FLOW =====================================================================
  0 2r: 2.56E-06 2x: 0.00E+00 2u: 0.00E+00 ir: 3.36E-07 iu: 0.00E+00 rsn:   0
  1 2r: 1.29E-10 2x: 6.45E+07 2u: 2.80E+01 ir: 1.45E-11 iu: 7.59E-01 rsn: itol_upd
 Step    105 Time=  4.65000E+00 Dt=  5.00000E-02 [y] snes_conv_reason:   11
  newton =   1 [     111] linear =   124 [     13135] cuts =  0 [   0]
  --> max chng: dpmx=   7.5923E-01 dtmpmx=   1.0027E-01

== TH FLOW =====================================================================
  0 2r: 2.55E-06 2x: 0.00E+00 2u: 0.00E+00 ir: 3.33E-07 iu: 0.00E+00 rsn:   0
  1 2r: 1.27E-10 2x: 6.45E+07 2u: 2.79E+01 ir: 1.42E-11 iu: 7.56E-01 rsn: itol_upd
 Step    106 Time=  4.70000E+00 Dt=  5.00000E-02 [y] snes_conv_reason:   11
  newton =   1 [     112] linear =   121 [     13256] cuts =  0 [   0]
  --> max chng: dpmx=   7.5606E-01 dtmpmx=   9.9474E-02

== TH FLOW =====================================================================
  0 2r: 2.54E-06 2x: 0.00E+00 2u: 0.00E+00 ir: 3.31E-07 iu: 0.00E+00 rsn:   0
  1 2r: 1.25E-10 2x: 6.45E+07 2u: 2.77E+01 ir: 1.39E-11 iu: 7.52E-01 rsn: itol_upd
 Step    107 Time=  4.75000E+00 Dt=  5.00000E-02 [y] snes_conv_reason:   11
  newton =   1 [     113] linear =   118 [     13374] cuts =  0 [   0]
  --> max chng: dpmx=   7.5204E-01 dtmpmx=   9.8620E-02

== TH FLOW =====================================================================
  0 2r: 2.53E-06 2x: 0.00E+00 2u: 0.00E+00 ir: 3.28E-07 iu: 0.00E+00 rsn:   0
  1 2r: 1.22E-10 2x: 6.45E+07 2u: 2.76E+01 ir: 1.36E-11 iu: 7.48E-01 rsn: itol_upd
 Step    108 Time=  4.80000E+00 Dt=  5.00000E-02 [y] snes_conv_reason:   11
  newton =   1 [     114] linear =   116 [     13490] cuts =  0 [   0]
  --> max chng: dpmx=   7.4808E-01 dtmpmx=   9.7970E-02

== TH FLOW =====================================================================
  0 2r: 2.53E-06 2x: 0.00E+00 2u: 0.00E+00 ir: 3.26E-07 iu: 0.00E+00 rsn:   0
  1 2r: 1.20E-10 2x: 6.45E+07 2u: 2.75E+01 ir: 1.33E-11 iu: 7.45E-01 rsn: itol_upd
 Step    109 Time=  4.85000E+00 Dt=  5.00000E-02 [y] snes_conv_reason:   11
  newton =   1 [     115] linear =   118 [     13608] cuts =  0 [   0]
  --> max chng: dpmx=   7.4476E-01 dtmpmx=   9.7145E-02

== TH FLOW =====================================================================
  0 2r: 2.52E-06 2x: 0.00E+00 2u: 0.00E+00 ir: 3.23E-07 iu: 0.00E+00 rsn:   0
  1 2r: 1.18E-10 2x: 6.45E+07 2u: 2.73E+01 ir: 1.30E-11 iu: 7.41E-01 rsn: itol_upd
 Step    110 Time=  4.90000E+00 Dt=  5.00000E-02 [y] snes_conv_reason:   11
  newton =   1 [     116] linear =   118 [     13726] cuts =  0 [   0]
  --> max chng: dpmx=   7.4087E-01 dtmpmx=   9.6442E-02

== TH FLOW =====================================================================
  0 2r: 2.51E-06 2x: 0.00E+00 2u: 0.00E+00 ir: 3.21E-07 iu: 0.00E+00 rsn:   0
  1 2r: 1.17E-10 2x: 6.45E+07 2u: 2.72E+01 ir: 1.28E-11 iu: 7.37E-01 rsn: itol_upd
 Step    111 Time=  4.95000E+00 Dt=  5.00000E-02 [y] snes_conv_reason:   11
  newton =   1 [     117] linear =   118 [     13844] cuts =  0 [   0]
  --> max chng: dpmx=   7.3691E-01 dtmpmx=   9.5760E-02

== TH FLOW =====================================================================
  0 2r: 2.50E-06 2x: 0.00E+00 2u: 0.00E+00 ir: 3.18E-07 iu: 0.00E+00 rsn:   0
  1 2r: 1.15E-10 2x: 6.45E+07 2u: 2.71E+01 ir: 1.25E-11 iu: 7.33E-01 rsn: itol_upd
 Step    112 Time=  5.00000E+00 Dt=  5.00000E-02 [y] snes_conv_reason:   11
  newton =   1 [     118] linear =   119 [     13963] cuts =  0 [   0]
  --> max chng: dpmx=   7.3339E-01 dtmpmx=   9.4913E-02

== TH FLOW =====================================================================
  0 2r: 2.49E-06 2x: 0.00E+00 2u: 0.00E+00 ir: 3.16E-07 iu: 0.00E+00 rsn:   0
  1 2r: 1.13E-10 2x: 6.45E+07 2u: 2.69E+01 ir: 1.22E-11 iu: 7.29E-01 rsn: itol_upd
 Step    113 Time=  5.05000E+00 Dt=  5.00000E-02 [y] snes_conv_reason:   11
  newton =   1 [     119] linear =   120 [     14083] cuts =  0 [   0]
  --> max chng: dpmx=   7.2949E-01 dtmpmx=   9.4346E-02

== TH FLOW =====================================================================
  0 2r: 2.48E-06 2x: 0.00E+00 2u: 0.00E+00 ir: 3.14E-07 iu: 0.00E+00 rsn:   0
  1 2r: 1.11E-10 2x: 6.45E+07 2u: 2.68E+01 ir: 1.20E-11 iu: 7.26E-01 rsn: itol_upd
 Step    114 Time=  5.10000E+00 Dt=  5.00000E-02 [y] snes_conv_reason:   11
  newton =   1 [     120] linear =   115 [     14198] cuts =  0 [   0]
  --> max chng: dpmx=   7.2620E-01 dtmpmx=   9.3635E-02

== TH FLOW =====================================================================
  0 2r: 2.47E-06 2x: 0.00E+00 2u: 0.00E+00 ir: 3.11E-07 iu: 0.00E+00 rsn:   0
  1 2r: 1.09E-10 2x: 6.45E+07 2u: 2.67E+01 ir: 1.18E-11 iu: 7.22E-01 rsn: itol_upd
 Step    115 Time=  5.15000E+00 Dt=  5.00000E-02 [y] snes_conv_reason:   11
  newton =   1 [     121] linear =   119 [     14317] cuts =  0 [   0]
  --> max chng: dpmx=   7.2153E-01 dtmpmx=   9.2910E-02

== TH FLOW =====================================================================
  0 2r: 2.46E-06 2x: 0.00E+00 2u: 0.00E+00 ir: 3.09E-07 iu: 0.00E+00 rsn:   0
  1 2r: 1.08E-10 2x: 6.45E+07 2u: 2.66E+01 ir: 1.16E-11 iu: 7.19E-01 rsn: itol_upd
 Step    116 Time=  5.20000E+00 Dt=  5.00000E-02 [y] snes_conv_reason:   11
  newton =   1 [     122] linear =   116 [     14433] cuts =  0 [   0]
  --> max chng: dpmx=   7.1863E-01 dtmpmx=   9.2328E-02

== TH FLOW =====================================================================
  0 2r: 2.45E-06 2x: 0.00E+00 2u: 0.00E+00 ir: 3.07E-07 iu: 0.00E+00 rsn:   0
  1 2r: 1.06E-10 2x: 6.45E+07 2u: 2.65E+01 ir: 1.14E-11 iu: 7.15E-01 rsn: itol_upd
 Step    117 Time=  5.25000E+00 Dt=  5.00000E-02 [y] snes_conv_reason:   11
  newton =   1 [     123] linear =   114 [     14547] cuts =  0 [   0]
  --> max chng: dpmx=   7.1524E-01 dtmpmx=   9.1593E-02

== TH FLOW =====================================================================
  0 2r: 2.45E-06 2x: 0.00E+00 2u: 0.00E+00 ir: 3.05E-07 iu: 0.00E+00 rsn:   0
  1 2r: 1.04E-10 2x: 6.45E+07 2u: 2.63E+01 ir: 1.11E-11 iu: 7.11E-01 rsn: itol_upd
 Step    118 Time=  5.30000E+00 Dt=  5.00000E-02 [y] snes_conv_reason:   11
  newton =   1 [     124] linear =   114 [     14661] cuts =  0 [   0]
  --> max chng: dpmx=   7.1114E-01 dtmpmx=   9.0994E-02

== TH FLOW =====================================================================
  0 2r: 2.44E-06 2x: 0.00E+00 2u: 0.00E+00 ir: 3.03E-07 iu: 0.00E+00 rsn:   0
  1 2r: 1.03E-10 2x: 6.45E+07 2u: 2.62E+01 ir: 1.10E-11 iu: 7.07E-01 rsn: itol_upd
 Step    119 Time=  5.35000E+00 Dt=  5.00000E-02 [y] snes_conv_reason:   11
  newton =   1 [     125] linear =   113 [     14774] cuts =  0 [   0]
  --> max chng: dpmx=   7.0721E-01 dtmpmx=   9.0382E-02

== TH FLOW =====================================================================
  0 2r: 2.43E-06 2x: 0.00E+00 2u: 0.00E+00 ir: 3.00E-07 iu: 0.00E+00 rsn:   0
  1 2r: 1.01E-10 2x: 6.45E+07 2u: 2.61E+01 ir: 1.07E-11 iu: 7.04E-01 rsn: itol_upd
 Step    120 Time=  5.40000E+00 Dt=  5.00000E-02 [y] snes_conv_reason:   11
  newton =   1 [     126] linear =   112 [     14886] cuts =  0 [   0]
  --> max chng: dpmx=   7.0416E-01 dtmpmx=   8.9639E-02

== TH FLOW =====================================================================
  0 2r: 2.42E-06 2x: 0.00E+00 2u: 0.00E+00 ir: 2.98E-07 iu: 0.00E+00 rsn:   0
  1 2r: 9.97E-11 2x: 6.45E+07 2u: 2.60E+01 ir: 1.05E-11 iu: 7.00E-01 rsn: itol_upd
 Step    121 Time=  5.45000E+00 Dt=  5.00000E-02 [y] snes_conv_reason:   11
  newton =   1 [     127] linear =   121 [     15007] cuts =  0 [   0]
  --> max chng: dpmx=   7.0042E-01 dtmpmx=   8.9144E-02

== TH FLOW =====================================================================
  0 2r: 2.41E-06 2x: 0.00E+00 2u: 0.00E+00 ir: 2.96E-07 iu: 0.00E+00 rsn:   0
  1 2r: 9.82E-11 2x: 6.45E+07 2u: 2.59E+01 ir: 1.03E-11 iu: 6.97E-01 rsn: itol_upd
 Step    122 Time=  5.50000E+00 Dt=  5.00000E-02 [y] snes_conv_reason:   11
  newton =   1 [     128] linear =   115 [     15122] cuts =  0 [   0]
  --> max chng: dpmx=   6.9671E-01 dtmpmx=   8.8507E-02

== TH FLOW =====================================================================
  0 2r: 2.41E-06 2x: 0.00E+00 2u: 0.00E+00 ir: 2.94E-07 iu: 0.00E+00 rsn:   0
  1 2r: 9.68E-11 2x: 6.45E+07 2u: 2.57E+01 ir: 1.01E-11 iu: 6.93E-01 rsn: itol_upd
 Step    123 Time=  5.55000E+00 Dt=  5.00000E-02 [y] snes_conv_reason:   11
  newton =   1 [     129] linear =   115 [     15237] cuts =  0 [   0]
  --> max chng: dpmx=   6.9293E-01 dtmpmx=   8.7883E-02

== TH FLOW =====================================================================
  0 2r: 2.40E-06 2x: 0.00E+00 2u: 0.00E+00 ir: 2.92E-07 iu: 0.00E+00 rsn:   0
  1 2r: 9.53E-11 2x: 6.45E+07 2u: 2.56E+01 ir: 9.89E-12 iu: 6.89E-01 rsn: itol_upd
 Step    124 Time=  5.60000E+00 Dt=  5.00000E-02 [y] snes_conv_reason:   11
  newton =   1 [     130] linear =   118 [     15355] cuts =  0 [   0]
  --> max chng: dpmx=   6.8949E-01 dtmpmx=   8.7357E-02

== TH FLOW =====================================================================
  0 2r: 2.39E-06 2x: 0.00E+00 2u: 0.00E+00 ir: 2.90E-07 iu: 0.00E+00 rsn:   0
  1 2r: 9.40E-11 2x: 6.45E+07 2u: 2.55E+01 ir: 9.75E-12 iu: 6.86E-01 rsn: itol_upd
 Step    125 Time=  5.65000E+00 Dt=  5.00000E-02 [y] snes_conv_reason:   11
  newton =   1 [     131] linear =   117 [     15472] cuts =  0 [   0]
  --> max chng: dpmx=   6.8555E-01 dtmpmx=   8.6697E-02

== TH FLOW =====================================================================
  0 2r: 2.38E-06 2x: 0.00E+00 2u: 0.00E+00 ir: 2.88E-07 iu: 0.00E+00 rsn:   0
  1 2r: 9.26E-11 2x: 6.45E+07 2u: 2.54E+01 ir: 9.57E-12 iu: 6.82E-01 rsn: itol_upd
 Step    126 Time=  5.70000E+00 Dt=  5.00000E-02 [y] snes_conv_reason:   11
  newton =   1 [     132] linear =   119 [     15591] cuts =  0 [   0]
  --> max chng: dpmx=   6.8182E-01 dtmpmx=   8.6182E-02

== TH FLOW =====================================================================
  0 2r: 2.37E-06 2x: 0.00E+00 2u: 0.00E+00 ir: 2.87E-07 iu: 0.00E+00 rsn:   0
  1 2r: 9.14E-11 2x: 6.45E+07 2u: 2.53E+01 ir: 9.39E-12 iu: 6.79E-01 rsn: itol_upd
 Step    127 Time=  5.75000E+00 Dt=  5.00000E-02 [y] snes_conv_reason:   11
  newton =   1 [     133] linear =   121 [     15712] cuts =  0 [   0]
  --> max chng: dpmx=   6.7879E-01 dtmpmx=   8.5629E-02

== TH FLOW =====================================================================
  0 2r: 2.37E-06 2x: 0.00E+00 2u: 0.00E+00 ir: 2.85E-07 iu: 0.00E+00 rsn:   0
  1 2r: 9.01E-11 2x: 6.45E+07 2u: 2.52E+01 ir: 9.25E-12 iu: 6.75E-01 rsn: itol_upd
 Step    128 Time=  5.80000E+00 Dt=  5.00000E-02 [y] snes_conv_reason:   11
  newton =   1 [     134] linear =   117 [     15829] cuts =  0 [   0]
  --> max chng: dpmx=   6.7501E-01 dtmpmx=   8.4986E-02

== TH FLOW =====================================================================
  0 2r: 2.36E-06 2x: 0.00E+00 2u: 0.00E+00 ir: 2.83E-07 iu: 0.00E+00 rsn:   0
  1 2r: 8.89E-11 2x: 6.45E+07 2u: 2.50E+01 ir: 9.11E-12 iu: 6.71E-01 rsn: itol_upd
 Step    129 Time=  5.85000E+00 Dt=  5.00000E-02 [y] snes_conv_reason:   11
  newton =   1 [     135] linear =   108 [     15937] cuts =  0 [   0]
  --> max chng: dpmx=   6.7066E-01 dtmpmx=   8.4535E-02

== TH FLOW =====================================================================
  0 2r: 2.35E-06 2x: 0.00E+00 2u: 0.00E+00 ir: 2.81E-07 iu: 0.00E+00 rsn:   0
  1 2r: 8.77E-11 2x: 6.45E+07 2u: 2.50E+01 ir: 8.92E-12 iu: 6.68E-01 rsn: itol_upd
 Step    130 Time=  5.90000E+00 Dt=  5.00000E-02 [y] snes_conv_reason:   11
  newton =   1 [     136] linear =   120 [     16057] cuts =  0 [   0]
  --> max chng: dpmx=   6.6775E-01 dtmpmx=   8.3958E-02

== TH FLOW =====================================================================
  0 2r: 2.35E-06 2x: 0.00E+00 2u: 0.00E+00 ir: 2.79E-07 iu: 0.00E+00 rsn:   0
  1 2r: 8.63E-11 2x: 6.45E+07 2u: 2.49E+01 ir: 8.77E-12 iu: 6.65E-01 rsn: itol_upd
 Step    131 Time=  5.95000E+00 Dt=  5.00000E-02 [y] snes_conv_reason:   11
  newton =   1 [     137] linear =   117 [     16174] cuts =  0 [   0]
  --> max chng: dpmx=   6.6468E-01 dtmpmx=   8.3418E-02

== TH FLOW =====================================================================
  0 2r: 2.34E-06 2x: 0.00E+00 2u: 0.00E+00 ir: 2.77E-07 iu: 0.00E+00 rsn:   0
  1 2r: 8.50E-11 2x: 6.45E+07 2u: 2.47E+01 ir: 8.60E-12 iu: 6.60E-01 rsn: itol_upd
 Step    132 Time=  6.00000E+00 Dt=  5.00000E-02 [y] snes_conv_reason:   11
  newton =   1 [     138] linear =   117 [     16291] cuts =  0 [   0]
  --> max chng: dpmx=   6.6039E-01 dtmpmx=   8.2939E-02

== TH FLOW =====================================================================
  0 2r: 2.33E-06 2x: 0.00E+00 2u: 0.00E+00 ir: 2.76E-07 iu: 0.00E+00 rsn:   0
  1 2r: 8.40E-11 2x: 6.45E+07 2u: 2.46E+01 ir: 8.45E-12 iu: 6.57E-01 rsn: itol_upd
 Step    133 Time=  6.05000E+00 Dt=  5.00000E-02 [y] snes_conv_reason:   11
  newton =   1 [     139] linear =   117 [     16408] cuts =  0 [   0]
  --> max chng: dpmx=   6.5676E-01 dtmpmx=   8.2341E-02

== TH FLOW =====================================================================
  0 2r: 2.32E-06 2x: 0.00E+00 2u: 0.00E+00 ir: 2.74E-07 iu: 0.00E+00 rsn:   0
  1 2r: 8.28E-11 2x: 6.45E+07 2u: 2.45E+01 ir: 8.34E-12 iu: 6.53E-01 rsn: itol_upd
 Step    134 Time=  6.10000E+00 Dt=  5.00000E-02 [y] snes_conv_reason:   11
  newton =   1 [     140] linear =   116 [     16524] cuts =  0 [   0]
  --> max chng: dpmx=   6.5323E-01 dtmpmx=   8.1895E-02

== TH FLOW =====================================================================
  0 2r: 2.32E-06 2x: 0.00E+00 2u: 0.00E+00 ir: 2.72E-07 iu: 0.00E+00 rsn:   0
  1 2r: 8.17E-11 2x: 6.45E+07 2u: 2.45E+01 ir: 8.17E-12 iu: 6.50E-01 rsn: itol_upd
 Step    135 Time=  6.15000E+00 Dt=  5.00000E-02 [y] snes_conv_reason:   11
  newton =   1 [     141] linear =   121 [     16645] cuts =  0 [   0]
  --> max chng: dpmx=   6.4995E-01 dtmpmx=   8.1392E-02

== TH FLOW =====================================================================
  0 2r: 2.31E-06 2x: 0.00E+00 2u: 0.00E+00 ir: 2.71E-07 iu: 0.00E+00 rsn:   0
  1 2r: 8.06E-11 2x: 6.45E+07 2u: 2.44E+01 ir: 8.04E-12 iu: 6.46E-01 rsn: itol_upd
 Step    136 Time=  6.20000E+00 Dt=  5.00000E-02 [y] snes_conv_reason:   11
  newton =   1 [     142] linear =   124 [     16769] cuts =  0 [   0]
  --> max chng: dpmx=   6.4616E-01 dtmpmx=   8.0830E-02

== TH FLOW =====================================================================
  0 2r: 2.30E-06 2x: 0.00E+00 2u: 0.00E+00 ir: 2.69E-07 iu: 0.00E+00 rsn:   0
  1 2r: 7.96E-11 2x: 6.45E+07 2u: 2.43E+01 ir: 7.93E-12 iu: 6.43E-01 rsn: itol_upd
 Step    137 Time=  6.25000E+00 Dt=  5.00000E-02 [y] snes_conv_reason:   11
  newton =   1 [     143] linear =   120 [     16889] cuts =  0 [   0]
  --> max chng: dpmx=   6.4265E-01 dtmpmx=   8.0417E-02

== TH FLOW =====================================================================
  0 2r: 2.30E-06 2x: 0.00E+00 2u: 0.00E+00 ir: 2.67E-07 iu: 0.00E+00 rsn:   0
  1 2r: 7.87E-11 2x: 6.45E+07 2u: 2.42E+01 ir: 7.79E-12 iu: 6.39E-01 rsn: itol_upd
 Step    138 Time=  6.30000E+00 Dt=  5.00000E-02 [y] snes_conv_reason:   11
  newton =   1 [     144] linear =   118 [     17007] cuts =  0 [   0]
  --> max chng: dpmx=   6.3912E-01 dtmpmx=   7.9892E-02

== TH FLOW =====================================================================
  0 2r: 2.29E-06 2x: 0.00E+00 2u: 0.00E+00 ir: 2.66E-07 iu: 0.00E+00 rsn:   0
  1 2r: 7.75E-11 2x: 6.45E+07 2u: 2.41E+01 ir: 7.65E-12 iu: 6.36E-01 rsn: itol_upd
 Step    139 Time=  6.35000E+00 Dt=  5.00000E-02 [y] snes_conv_reason:   11
  newton =   1 [     145] linear =   120 [     17127] cuts =  0 [   0]
  --> max chng: dpmx=   6.3564E-01 dtmpmx=   7.9420E-02

== TH FLOW =====================================================================
  0 2r: 2.28E-06 2x: 0.00E+00 2u: 0.00E+00 ir: 2.64E-07 iu: 0.00E+00 rsn:   0
  1 2r: 7.65E-11 2x: 6.45E+07 2u: 2.40E+01 ir: 7.54E-12 iu: 6.32E-01 rsn: itol_upd
 Step    140 Time=  6.40000E+00 Dt=  5.00000E-02 [y] snes_conv_reason:   11
  newton =   1 [     146] linear =   124 [     17251] cuts =  0 [   0]
  --> max chng: dpmx=   6.3195E-01 dtmpmx=   7.8981E-02

== TH FLOW =====================================================================
  0 2r: 2.28E-06 2x: 0.00E+00 2u: 0.00E+00 ir: 2.63E-07 iu: 0.00E+00 rsn:   0
  1 2r: 7.55E-11 2x: 6.45E+07 2u: 2.39E+01 ir: 7.39E-12 iu: 6.28E-01 rsn: itol_upd
 Step    141 Time=  6.45000E+00 Dt=  5.00000E-02 [y] snes_conv_reason:   11
  newton =   1 [     147] linear =   118 [     17369] cuts =  0 [   0]
  --> max chng: dpmx=   6.2836E-01 dtmpmx=   7.8436E-02

== TH FLOW =====================================================================
  0 2r: 2.27E-06 2x: 0.00E+00 2u: 0.00E+00 ir: 2.61E-07 iu: 0.00E+00 rsn:   0
  1 2r: 7.46E-11 2x: 6.45E+07 2u: 2.38E+01 ir: 7.30E-12 iu: 6.25E-01 rsn: itol_upd
 Step    142 Time=  6.50000E+00 Dt=  5.00000E-02 [y] snes_conv_reason:   11
  newton =   1 [     148] linear =   119 [     17488] cuts =  0 [   0]
  --> max chng: dpmx=   6.2484E-01 dtmpmx=   7.8047E-02

== TH FLOW =====================================================================
  0 2r: 2.26E-06 2x: 0.00E+00 2u: 0.00E+00 ir: 2.59E-07 iu: 0.00E+00 rsn:   0
  1 2r: 7.38E-11 2x: 6.45E+07 2u: 2.37E+01 ir: 7.19E-12 iu: 6.22E-01 rsn: itol_upd
 Step    143 Time=  6.55000E+00 Dt=  5.00000E-02 [y] snes_conv_reason:   11
  newton =   1 [     149] linear =   112 [     17600] cuts =  0 [   0]
  --> max chng: dpmx=   6.2160E-01 dtmpmx=   7.7586E-02

== TH FLOW =====================================================================
  0 2r: 2.26E-06 2x: 0.00E+00 2u: 0.00E+00 ir: 2.58E-07 iu: 0.00E+00 rsn:   0
  1 2r: 7.27E-11 2x: 6.45E+07 2u: 2.36E+01 ir: 7.07E-12 iu: 6.18E-01 rsn: itol_upd
 Step    144 Time=  6.60000E+00 Dt=  5.00000E-02 [y] snes_conv_reason:   11
  newton =   1 [     150] linear =   115 [     17715] cuts =  0 [   0]
  --> max chng: dpmx=   6.1778E-01 dtmpmx=   7.7092E-02

== TH FLOW =====================================================================
  0 2r: 2.25E-06 2x: 0.00E+00 2u: 0.00E+00 ir: 2.56E-07 iu: 0.00E+00 rsn:   0
  1 2r: 7.19E-11 2x: 6.45E+07 2u: 2.36E+01 ir: 7.00E-12 iu: 6.14E-01 rsn: itol_upd
 Step    145 Time=  6.65000E+00 Dt=  5.00000E-02 [y] snes_conv_reason:   11
  newton =   1 [     151] linear =   114 [     17829] cuts =  0 [   0]
  --> max chng: dpmx=   6.1419E-01 dtmpmx=   7.6712E-02

== TH FLOW =====================================================================
  0 2r: 2.24E-06 2x: 0.00E+00 2u: 0.00E+00 ir: 2.55E-07 iu: 0.00E+00 rsn:   0
  1 2r: 7.07E-11 2x: 6.45E+07 2u: 2.35E+01 ir: 6.83E-12 iu: 6.11E-01 rsn: itol_upd
 Step    146 Time=  6.70000E+00 Dt=  5.00000E-02 [y] snes_conv_reason:   11
  newton =   1 [     152] linear =   118 [     17947] cuts =  0 [   0]
  --> max chng: dpmx=   6.1116E-01 dtmpmx=   7.6230E-02

== TH FLOW =====================================================================
  0 2r: 2.24E-06 2x: 0.00E+00 2u: 0.00E+00 ir: 2.53E-07 iu: 0.00E+00 rsn:   0
  1 2r: 7.00E-11 2x: 6.45E+07 2u: 2.34E+01 ir: 6.85E-12 iu: 6.07E-01 rsn: itol_upd
 Step    147 Time=  6.75000E+00 Dt=  5.00000E-02 [y] snes_conv_reason:   11
  newton =   1 [     153] linear =   114 [     18061] cuts =  0 [   0]
  --> max chng: dpmx=   6.0743E-01 dtmpmx=   7.5815E-02

== TH FLOW =====================================================================
  0 2r: 2.23E-06 2x: 0.00E+00 2u: 0.00E+00 ir: 2.52E-07 iu: 0.00E+00 rsn:   0
  1 2r: 6.92E-11 2x: 6.45E+07 2u: 2.33E+01 ir: 6.65E-12 iu: 6.03E-01 rsn: itol_upd
 Step    148 Time=  6.80000E+00 Dt=  5.00000E-02 [y] snes_conv_reason:   11
  newton =   1 [     154] linear =   123 [     18184] cuts =  0 [   0]
  --> max chng: dpmx=   6.0332E-01 dtmpmx=   7.5412E-02

== TH FLOW =====================================================================
  0 2r: 2.23E-06 2x: 0.00E+00 2u: 0.00E+00 ir: 2.51E-07 iu: 0.00E+00 rsn:   0
  1 2r: 6.82E-11 2x: 6.45E+07 2u: 2.33E+01 ir: 6.51E-12 iu: 6.01E-01 rsn: itol_upd
 Step    149 Time=  6.85000E+00 Dt=  5.00000E-02 [y] snes_conv_reason:   11
  newton =   1 [     155] linear =   121 [     18305] cuts =  0 [   0]
  --> max chng: dpmx=   6.0059E-01 dtmpmx=   7.4912E-02

== TH FLOW =====================================================================
  0 2r: 2.22E-06 2x: 0.00E+00 2u: 0.00E+00 ir: 2.49E-07 iu: 0.00E+00 rsn:   0
  1 2r: 6.75E-11 2x: 6.45E+07 2u: 2.32E+01 ir: 6.44E-12 iu: 5.96E-01 rsn: itol_upd
 Step    150 Time=  6.90000E+00 Dt=  5.00000E-02 [y] snes_conv_reason:   11
  newton =   1 [     156] linear =   120 [     18425] cuts =  0 [   0]
  --> max chng: dpmx=   5.9638E-01 dtmpmx=   7.4570E-02

== TH FLOW =====================================================================
  0 2r: 2.21E-06 2x: 0.00E+00 2u: 0.00E+00 ir: 2.48E-07 iu: 0.00E+00 rsn:   0
  1 2r: 6.65E-11 2x: 6.45E+07 2u: 2.31E+01 ir: 6.33E-12 iu: 5.94E-01 rsn: itol_upd
 Step    151 Time=  6.95000E+00 Dt=  5.00000E-02 [y] snes_conv_reason:   11
  newton =   1 [     157] linear =   118 [     18543] cuts =  0 [   0]
  --> max chng: dpmx=   5.9366E-01 dtmpmx=   7.4146E-02

== TH FLOW =====================================================================
  0 2r: 2.21E-06 2x: 0.00E+00 2u: 0.00E+00 ir: 2.47E-07 iu: 0.00E+00 rsn:   0
  1 2r: 6.60E-11 2x: 6.45E+07 2u: 2.30E+01 ir: 6.44E-12 iu: 5.90E-01 rsn: itol_upd
 Step    152 Time=  7.00000E+00 Dt=  5.00000E-02 [y] snes_conv_reason:   11
  newton =   1 [     158] linear =   124 [     18667] cuts =  0 [   0]
  --> max chng: dpmx=   5.8953E-01 dtmpmx=   7.3709E-02

== TH FLOW =====================================================================
  0 2r: 2.20E-06 2x: 0.00E+00 2u: 0.00E+00 ir: 2.45E-07 iu: 0.00E+00 rsn:   0
  1 2r: 6.49E-11 2x: 6.45E+07 2u: 2.30E+01 ir: 6.15E-12 iu: 5.86E-01 rsn: itol_upd
 Step    153 Time=  7.05000E+00 Dt=  5.00000E-02 [y] snes_conv_reason:   11
  newton =   1 [     159] linear =   121 [     18788] cuts =  0 [   0]
  --> max chng: dpmx=   5.8627E-01 dtmpmx=   7.3357E-02

== TH FLOW =====================================================================
  0 2r: 2.20E-06 2x: 0.00E+00 2u: 0.00E+00 ir: 2.44E-07 iu: 0.00E+00 rsn:   0
  1 2r: 6.41E-11 2x: 6.45E+07 2u: 2.29E+01 ir: 6.05E-12 iu: 5.83E-01 rsn: itol_upd
 Step    154 Time=  7.10000E+00 Dt=  5.00000E-02 [y] snes_conv_reason:   11
  newton =   1 [     160] linear =   119 [     18907] cuts =  0 [   0]
  --> max chng: dpmx=   5.8298E-01 dtmpmx=   7.2913E-02

== TH FLOW =====================================================================
  0 2r: 2.19E-06 2x: 0.00E+00 2u: 0.00E+00 ir: 2.42E-07 iu: 0.00E+00 rsn:   0
  1 2r: 6.35E-11 2x: 6.45E+07 2u: 2.28E+01 ir: 5.96E-12 iu: 5.79E-01 rsn: itol_upd
 Step    155 Time=  7.15000E+00 Dt=  5.00000E-02 [y] snes_conv_reason:   11
  newton =   1 [     161] linear =   115 [     19022] cuts =  0 [   0]
  --> max chng: dpmx=   5.7888E-01 dtmpmx=   7.2546E-02

== TH FLOW =====================================================================
  0 2r: 2.19E-06 2x: 0.00E+00 2u: 0.00E+00 ir: 2.41E-07 iu: 0.00E+00 rsn:   0
  1 2r: 6.27E-11 2x: 6.45E+07 2u: 2.28E+01 ir: 5.90E-12 iu: 5.76E-01 rsn: itol_upd
 Step    156 Time=  7.20000E+00 Dt=  5.00000E-02 [y] snes_conv_reason:   11
  newton =   1 [     162] linear =   117 [     19139] cuts =  0 [   0]
  --> max chng: dpmx=   5.7600E-01 dtmpmx=   7.2173E-02

== TH FLOW =====================================================================
  0 2r: 2.18E-06 2x: 0.00E+00 2u: 0.00E+00 ir: 2.40E-07 iu: 0.00E+00 rsn:   0
  1 2r: 6.20E-11 2x: 6.45E+07 2u: 2.27E+01 ir: 5.80E-12 iu: 5.72E-01 rsn: itol_upd
 Step    157 Time=  7.25000E+00 Dt=  5.00000E-02 [y] snes_conv_reason:   11
  newton =   1 [     163] linear =   116 [     19255] cuts =  0 [   0]
  --> max chng: dpmx=   5.7174E-01 dtmpmx=   7.1717E-02

== TH FLOW =====================================================================
  0 2r: 2.17E-06 2x: 0.00E+00 2u: 0.00E+00 ir: 2.38E-07 iu: 0.00E+00 rsn:   0
  1 2r: 6.12E-11 2x: 6.45E+07 2u: 2.27E+01 ir: 5.69E-12 iu: 5.69E-01 rsn: itol_upd
 Step    158 Time=  7.30000E+00 Dt=  5.00000E-02 [y] snes_conv_reason:   11
  newton =   1 [     164] linear =   120 [     19375] cuts =  0 [   0]
  --> max chng: dpmx=   5.6931E-01 dtmpmx=   7.1411E-02

== TH FLOW =====================================================================
  0 2r: 2.17E-06 2x: 0.00E+00 2u: 0.00E+00 ir: 2.37E-07 iu: 0.00E+00 rsn:   0
  1 2r: 6.05E-11 2x: 6.45E+07 2u: 2.26E+01 ir: 5.63E-12 iu: 5.65E-01 rsn: itol_upd
 Step    159 Time=  7.35000E+00 Dt=  5.00000E-02 [y] snes_conv_reason:   11
  newton =   1 [     165] linear =   121 [     19496] cuts =  0 [   0]
  --> max chng: dpmx=   5.6508E-01 dtmpmx=   7.1018E-02

== TH FLOW =====================================================================
  0 2r: 2.16E-06 2x: 0.00E+00 2u: 0.00E+00 ir: 2.36E-07 iu: 0.00E+00 rsn:   0
  1 2r: 5.99E-11 2x: 6.45E+07 2u: 2.26E+01 ir: 5.52E-12 iu: 5.62E-01 rsn: itol_upd
 Step    160 Time=  7.40000E+00 Dt=  5.00000E-02 [y] snes_conv_reason:   11
  newton =   1 [     166] linear =   117 [     19613] cuts =  0 [   0]
  --> max chng: dpmx=   5.6185E-01 dtmpmx=   7.0629E-02

== TH FLOW =====================================================================
  0 2r: 2.16E-06 2x: 0.00E+00 2u: 0.00E+00 ir: 2.35E-07 iu: 0.00E+00 rsn:   0
  1 2r: 5.92E-11 2x: 6.45E+07 2u: 2.25E+01 ir: 5.48E-12 iu: 5.58E-01 rsn: itol_upd
 Step    161 Time=  7.45000E+00 Dt=  5.00000E-02 [y] snes_conv_reason:   11
  newton =   1 [     167] linear =   104 [     19717] cuts =  0 [   0]
  --> max chng: dpmx=   5.5819E-01 dtmpmx=   7.0302E-02

== TH FLOW =====================================================================
  0 2r: 2.15E-06 2x: 0.00E+00 2u: 0.00E+00 ir: 2.34E-07 iu: 0.00E+00 rsn:   0
  1 2r: 5.84E-11 2x: 6.45E+07 2u: 2.25E+01 ir: 5.39E-12 iu: 5.55E-01 rsn: itol_upd
 Step    162 Time=  7.50000E+00 Dt=  5.00000E-02 [y] snes_conv_reason:   11
  newton =   1 [     168] linear =   120 [     19837] cuts =  0 [   0]
  --> max chng: dpmx=   5.5503E-01 dtmpmx=   6.9892E-02

== TH FLOW =====================================================================
  0 2r: 2.15E-06 2x: 0.00E+00 2u: 0.00E+00 ir: 2.32E-07 iu: 0.00E+00 rsn:   0
  1 2r: 5.78E-11 2x: 6.45E+07 2u: 2.24E+01 ir: 5.32E-12 iu: 5.51E-01 rsn: itol_upd
 Step    163 Time=  7.55000E+00 Dt=  5.00000E-02 [y] snes_conv_reason:   11
  newton =   1 [     169] linear =   120 [     19957] cuts =  0 [   0]
  --> max chng: dpmx=   5.5128E-01 dtmpmx=   6.9565E-02

== TH FLOW =====================================================================
  0 2r: 2.14E-06 2x: 0.00E+00 2u: 0.00E+00 ir: 2.31E-07 iu: 0.00E+00 rsn:   0
[...]
  1 2r: 3.58E-14 2x: 6.45E+07 2u: 3.32E-01 ir: 2.42E-14 iu: 7.22E-03 rsn: itol_upd
 Step    518 Time=  2.53000E+01 Dt=  5.00000E-02 [y] snes_conv_reason:   11
  newton =   1 [     524] linear =   106 [     61551] cuts =  0 [   0]
  --> max chng: dpmx=   7.2208E-03 dtmpmx=   1.1647E-04

== TH FLOW =====================================================================
  0 2r: 1.29E-08 2x: 0.00E+00 2u: 0.00E+00 ir: 3.87E-10 iu: 0.00E+00 rsn:   0
  1 2r: 3.12E-14 2x: 6.45E+07 2u: 3.32E-01 ir: 2.25E-14 iu: 7.23E-03 rsn: itol_upd
 Step    519 Time=  2.53500E+01 Dt=  5.00000E-02 [y] snes_conv_reason:   11
  newton =   1 [     525] linear =   108 [     61659] cuts =  0 [   0]
  --> max chng: dpmx=   7.2286E-03 dtmpmx=   1.1643E-04

== TH FLOW =====================================================================
  0 2r: 1.28E-08 2x: 0.00E+00 2u: 0.00E+00 ir: 3.87E-10 iu: 0.00E+00 rsn:   0
  1 2r: 3.91E-14 2x: 6.45E+07 2u: 3.32E-01 ir: 2.41E-14 iu: 7.24E-03 rsn: itol_upd
 Step    520 Time=  2.54000E+01 Dt=  5.00000E-02 [y] snes_conv_reason:   11
  newton =   1 [     526] linear =   105 [     61764] cuts =  0 [   0]
  --> max chng: dpmx=   7.2368E-03 dtmpmx=   1.1639E-04

== TH FLOW =====================================================================
  0 2r: 1.28E-08 2x: 0.00E+00 2u: 0.00E+00 ir: 3.87E-10 iu: 0.00E+00 rsn:   0
  1 2r: 3.24E-14 2x: 6.45E+07 2u: 3.33E-01 ir: 2.33E-14 iu: 7.24E-03 rsn: itol_upd
 Step    521 Time=  2.54500E+01 Dt=  5.00000E-02 [y] snes_conv_reason:   11
  newton =   1 [     527] linear =   106 [     61870] cuts =  0 [   0]
  --> max chng: dpmx=   7.2447E-03 dtmpmx=   1.1635E-04

== TH FLOW =====================================================================
  0 2r: 1.28E-08 2x: 0.00E+00 2u: 0.00E+00 ir: 3.87E-10 iu: 0.00E+00 rsn:   0
  1 2r: 3.37E-14 2x: 6.45E+07 2u: 3.33E-01 ir: 2.29E-14 iu: 7.25E-03 rsn: itol_upd
 Step    522 Time=  2.55000E+01 Dt=  5.00000E-02 [y] snes_conv_reason:   11
  newton =   1 [     528] linear =   105 [     61975] cuts =  0 [   0]
  --> max chng: dpmx=   7.2528E-03 dtmpmx=   1.1631E-04

== TH FLOW =====================================================================
  0 2r: 1.27E-08 2x: 0.00E+00 2u: 0.00E+00 ir: 3.87E-10 iu: 0.00E+00 rsn:   0
  1 2r: 3.26E-14 2x: 6.45E+07 2u: 3.33E-01 ir: 2.36E-14 iu: 7.26E-03 rsn: itol_upd
 Step    523 Time=  2.55500E+01 Dt=  5.00000E-02 [y] snes_conv_reason:   11
  newton =   1 [     529] linear =   108 [     62083] cuts =  0 [   0]
  --> max chng: dpmx=   7.2575E-03 dtmpmx=   1.1627E-04

== TH FLOW =====================================================================
  0 2r: 1.27E-08 2x: 0.00E+00 2u: 0.00E+00 ir: 3.87E-10 iu: 0.00E+00 rsn:   0
  1 2r: 3.27E-14 2x: 6.45E+07 2u: 3.33E-01 ir: 2.30E-14 iu: 7.26E-03 rsn: itol_upd
 Step    524 Time=  2.56000E+01 Dt=  5.00000E-02 [y] snes_conv_reason:   11
  newton =   1 [     530] linear =   109 [     62192] cuts =  0 [   0]
  --> max chng: dpmx=   7.2649E-03 dtmpmx=   1.1623E-04

== TH FLOW =====================================================================
  0 2r: 1.27E-08 2x: 0.00E+00 2u: 0.00E+00 ir: 3.86E-10 iu: 0.00E+00 rsn:   0
  1 2r: 3.15E-14 2x: 6.45E+07 2u: 3.34E-01 ir: 2.25E-14 iu: 7.27E-03 rsn: itol_upd
 Step    525 Time=  2.56500E+01 Dt=  5.00000E-02 [y] snes_conv_reason:   11
  newton =   1 [     531] linear =   108 [     62300] cuts =  0 [   0]
  --> max chng: dpmx=   7.2710E-03 dtmpmx=   1.1619E-04

== TH FLOW =====================================================================
  0 2r: 1.26E-08 2x: 0.00E+00 2u: 0.00E+00 ir: 3.86E-10 iu: 0.00E+00 rsn:   0
  1 2r: 3.14E-14 2x: 6.45E+07 2u: 3.34E-01 ir: 2.25E-14 iu: 7.28E-03 rsn: itol_upd
 Step    526 Time=  2.57000E+01 Dt=  5.00000E-02 [y] snes_conv_reason:   11
  newton =   1 [     532] linear =   103 [     62403] cuts =  0 [   0]
  --> max chng: dpmx=   7.2768E-03 dtmpmx=   1.1615E-04

== TH FLOW =====================================================================
  0 2r: 1.26E-08 2x: 0.00E+00 2u: 0.00E+00 ir: 3.86E-10 iu: 0.00E+00 rsn:   0
  1 2r: 3.33E-14 2x: 6.45E+07 2u: 3.34E-01 ir: 2.33E-14 iu: 7.28E-03 rsn: itol_upd
 Step    527 Time=  2.57500E+01 Dt=  5.00000E-02 [y] snes_conv_reason:   11
  newton =   1 [     533] linear =   113 [     62516] cuts =  0 [   0]
  --> max chng: dpmx=   7.2824E-03 dtmpmx=   1.1610E-04

== TH FLOW =====================================================================
  0 2r: 1.26E-08 2x: 0.00E+00 2u: 0.00E+00 ir: 3.86E-10 iu: 0.00E+00 rsn:   0
  1 2r: 3.07E-14 2x: 6.45E+07 2u: 3.34E-01 ir: 2.24E-14 iu: 7.29E-03 rsn: itol_upd
 Step    528 Time=  2.58000E+01 Dt=  5.00000E-02 [y] snes_conv_reason:   11
  newton =   1 [     534] linear =   110 [     62626] cuts =  0 [   0]
  --> max chng: dpmx=   7.2875E-03 dtmpmx=   1.1606E-04

== TH FLOW =====================================================================
  0 2r: 1.25E-08 2x: 0.00E+00 2u: 0.00E+00 ir: 3.86E-10 iu: 0.00E+00 rsn:   0
  1 2r: 3.30E-14 2x: 6.45E+07 2u: 3.35E-01 ir: 2.23E-14 iu: 7.29E-03 rsn: itol_upd
 Step    529 Time=  2.58500E+01 Dt=  5.00000E-02 [y] snes_conv_reason:   11
  newton =   1 [     535] linear =   103 [     62729] cuts =  0 [   0]
  --> max chng: dpmx=   7.2912E-03 dtmpmx=   1.1602E-04

== TH FLOW =====================================================================
  0 2r: 1.25E-08 2x: 0.00E+00 2u: 0.00E+00 ir: 3.86E-10 iu: 0.00E+00 rsn:   0
  1 2r: 3.28E-14 2x: 6.45E+07 2u: 3.35E-01 ir: 2.16E-14 iu: 7.30E-03 rsn: itol_upd
 Step    530 Time=  2.59000E+01 Dt=  5.00000E-02 [y] snes_conv_reason:   11
  newton =   1 [     536] linear =   111 [     62840] cuts =  0 [   0]
  --> max chng: dpmx=   7.2970E-03 dtmpmx=   1.1598E-04

== TH FLOW =====================================================================
  0 2r: 1.25E-08 2x: 0.00E+00 2u: 0.00E+00 ir: 3.86E-10 iu: 0.00E+00 rsn:   0
  1 2r: 3.12E-14 2x: 6.45E+07 2u: 3.35E-01 ir: 2.24E-14 iu: 7.30E-03 rsn: itol_upd
 Step    531 Time=  2.59500E+01 Dt=  5.00000E-02 [y] snes_conv_reason:   11
  newton =   1 [     537] linear =   113 [     62953] cuts =  0 [   0]
  --> max chng: dpmx=   7.3006E-03 dtmpmx=   1.1594E-04

== TH FLOW =====================================================================
  0 2r: 1.24E-08 2x: 0.00E+00 2u: 0.00E+00 ir: 3.85E-10 iu: 0.00E+00 rsn:   0
  1 2r: 3.08E-14 2x: 6.45E+07 2u: 3.35E-01 ir: 2.26E-14 iu: 7.30E-03 rsn: itol_upd
 Step    532 Time=  2.60000E+01 Dt=  5.00000E-02 [y] snes_conv_reason:   11
  newton =   1 [     538] linear =   115 [     63068] cuts =  0 [   0]
  --> max chng: dpmx=   7.3036E-03 dtmpmx=   1.1590E-04

== TH FLOW =====================================================================
  0 2r: 1.24E-08 2x: 0.00E+00 2u: 0.00E+00 ir: 3.85E-10 iu: 0.00E+00 rsn:   0
  1 2r: 3.21E-14 2x: 6.45E+07 2u: 3.35E-01 ir: 2.11E-14 iu: 7.31E-03 rsn: itol_upd
 Step    533 Time=  2.60500E+01 Dt=  5.00000E-02 [y] snes_conv_reason:   11
  newton =   1 [     539] linear =   110 [     63178] cuts =  0 [   0]
  --> max chng: dpmx=   7.3068E-03 dtmpmx=   1.1585E-04

== TH FLOW =====================================================================
  0 2r: 1.24E-08 2x: 0.00E+00 2u: 0.00E+00 ir: 3.85E-10 iu: 0.00E+00 rsn:   0
  1 2r: 3.02E-14 2x: 6.45E+07 2u: 3.36E-01 ir: 2.23E-14 iu: 7.31E-03 rsn: itol_upd
 Step    534 Time=  2.61000E+01 Dt=  5.00000E-02 [y] snes_conv_reason:   11
  newton =   1 [     540] linear =   113 [     63291] cuts =  0 [   0]
  --> max chng: dpmx=   7.3102E-03 dtmpmx=   1.1581E-04

== TH FLOW =====================================================================
  0 2r: 1.23E-08 2x: 0.00E+00 2u: 0.00E+00 ir: 3.85E-10 iu: 0.00E+00 rsn:   0
  1 2r: 3.07E-14 2x: 6.45E+07 2u: 3.36E-01 ir: 2.17E-14 iu: 7.31E-03 rsn: itol_upd
 Step    535 Time=  2.61500E+01 Dt=  5.00000E-02 [y] snes_conv_reason:   11
  newton =   1 [     541] linear =   109 [     63400] cuts =  0 [   0]
  --> max chng: dpmx=   7.3116E-03 dtmpmx=   1.1577E-04

== TH FLOW =====================================================================
  0 2r: 1.23E-08 2x: 0.00E+00 2u: 0.00E+00 ir: 3.85E-10 iu: 0.00E+00 rsn:   0
  1 2r: 3.00E-14 2x: 6.45E+07 2u: 3.36E-01 ir: 2.18E-14 iu: 7.32E-03 rsn: itol_upd
 Step    536 Time=  2.62000E+01 Dt=  5.00000E-02 [y] snes_conv_reason:   11
  newton =   1 [     542] linear =   110 [     63510] cuts =  0 [   0]
  --> max chng: dpmx=   7.3154E-03 dtmpmx=   1.1572E-04

== TH FLOW =====================================================================
  0 2r: 1.23E-08 2x: 0.00E+00 2u: 0.00E+00 ir: 3.85E-10 iu: 0.00E+00 rsn:   0
  1 2r: 3.41E-14 2x: 6.45E+07 2u: 3.36E-01 ir: 2.14E-14 iu: 7.32E-03 rsn: itol_upd
 Step    537 Time=  2.62500E+01 Dt=  5.00000E-02 [y] snes_conv_reason:   11
  newton =   1 [     543] linear =   111 [     63621] cuts =  0 [   0]
  --> max chng: dpmx=   7.3164E-03 dtmpmx=   1.1567E-04

== TH FLOW =====================================================================
  0 2r: 1.22E-08 2x: 0.00E+00 2u: 0.00E+00 ir: 3.85E-10 iu: 0.00E+00 rsn:   0
  1 2r: 2.95E-14 2x: 6.45E+07 2u: 3.36E-01 ir: 2.11E-14 iu: 7.32E-03 rsn: itol_upd
 Step    538 Time=  2.63000E+01 Dt=  5.00000E-02 [y] snes_conv_reason:   11
  newton =   1 [     544] linear =   110 [     63731] cuts =  0 [   0]
  --> max chng: dpmx=   7.3179E-03 dtmpmx=   1.1563E-04

== TH FLOW =====================================================================
  0 2r: 1.22E-08 2x: 0.00E+00 2u: 0.00E+00 ir: 3.84E-10 iu: 0.00E+00 rsn:   0
  1 2r: 2.95E-14 2x: 6.45E+07 2u: 3.36E-01 ir: 2.13E-14 iu: 7.32E-03 rsn: itol_upd
 Step    539 Time=  2.63500E+01 Dt=  5.00000E-02 [y] snes_conv_reason:   11
  newton =   1 [     545] linear =   110 [     63841] cuts =  0 [   0]
  --> max chng: dpmx=   7.3189E-03 dtmpmx=   1.1559E-04

== TH FLOW =====================================================================
  0 2r: 1.22E-08 2x: 0.00E+00 2u: 0.00E+00 ir: 3.84E-10 iu: 0.00E+00 rsn:   0
  1 2r: 3.09E-14 2x: 6.45E+07 2u: 3.36E-01 ir: 2.15E-14 iu: 7.32E-03 rsn: itol_upd
 Step    540 Time=  2.64000E+01 Dt=  5.00000E-02 [y] snes_conv_reason:   11
  newton =   1 [     546] linear =   110 [     63951] cuts =  0 [   0]
  --> max chng: dpmx=   7.3195E-03 dtmpmx=   1.1554E-04

== TH FLOW =====================================================================
  0 2r: 1.21E-08 2x: 0.00E+00 2u: 0.00E+00 ir: 3.84E-10 iu: 0.00E+00 rsn:   0
  1 2r: 2.99E-14 2x: 6.45E+07 2u: 3.36E-01 ir: 2.11E-14 iu: 7.32E-03 rsn: itol_upd
 Step    541 Time=  2.64500E+01 Dt=  5.00000E-02 [y] snes_conv_reason:   11
  newton =   1 [     547] linear =   110 [     64061] cuts =  0 [   0]
  --> max chng: dpmx=   7.3200E-03 dtmpmx=   1.1550E-04

== TH FLOW =====================================================================
  0 2r: 1.21E-08 2x: 0.00E+00 2u: 0.00E+00 ir: 3.84E-10 iu: 0.00E+00 rsn:   0
  1 2r: 3.12E-14 2x: 6.45E+07 2u: 3.36E-01 ir: 2.06E-14 iu: 7.32E-03 rsn: itol_upd
 Step    542 Time=  2.65000E+01 Dt=  5.00000E-02 [y] snes_conv_reason:   11
  newton =   1 [     548] linear =   109 [     64170] cuts =  0 [   0]
  --> max chng: dpmx=   7.3183E-03 dtmpmx=   1.1545E-04

== TH FLOW =====================================================================
  0 2r: 1.21E-08 2x: 0.00E+00 2u: 0.00E+00 ir: 3.84E-10 iu: 0.00E+00 rsn:   0
  1 2r: 3.25E-14 2x: 6.45E+07 2u: 3.36E-01 ir: 2.10E-14 iu: 7.32E-03 rsn: itol_upd
 Step    543 Time=  2.65500E+01 Dt=  5.00000E-02 [y] snes_conv_reason:   11
  newton =   1 [     549] linear =    81 [     64251] cuts =  0 [   0]
  --> max chng: dpmx=   7.3210E-03 dtmpmx=   1.1541E-04

== TH FLOW =====================================================================
  0 2r: 1.20E-08 2x: 0.00E+00 2u: 0.00E+00 ir: 3.84E-10 iu: 0.00E+00 rsn:   0
  1 2r: 2.90E-14 2x: 6.45E+07 2u: 3.36E-01 ir: 2.06E-14 iu: 7.32E-03 rsn: itol_upd
 Step    544 Time=  2.66000E+01 Dt=  5.00000E-02 [y] snes_conv_reason:   11
  newton =   1 [     550] linear =   111 [     64362] cuts =  0 [   0]
  --> max chng: dpmx=   7.3183E-03 dtmpmx=   1.1536E-04

== TH FLOW =====================================================================
  0 2r: 1.20E-08 2x: 0.00E+00 2u: 0.00E+00 ir: 3.83E-10 iu: 0.00E+00 rsn:   0
  1 2r: 2.92E-14 2x: 6.45E+07 2u: 3.36E-01 ir: 2.09E-14 iu: 7.32E-03 rsn: itol_upd
 Step    545 Time=  2.66500E+01 Dt=  5.00000E-02 [y] snes_conv_reason:   11
  newton =   1 [     551] linear =   105 [     64467] cuts =  0 [   0]
  --> max chng: dpmx=   7.3173E-03 dtmpmx=   1.1532E-04

== TH FLOW =====================================================================
  0 2r: 1.20E-08 2x: 0.00E+00 2u: 0.00E+00 ir: 3.83E-10 iu: 0.00E+00 rsn:   0
  1 2r: 3.24E-14 2x: 6.45E+07 2u: 3.36E-01 ir: 2.10E-14 iu: 7.32E-03 rsn: itol_upd
 Step    546 Time=  2.67000E+01 Dt=  5.00000E-02 [y] snes_conv_reason:   11
  newton =   1 [     552] linear =    85 [     64552] cuts =  0 [   0]
  --> max chng: dpmx=   7.3164E-03 dtmpmx=   1.1527E-04

== TH FLOW =====================================================================
  0 2r: 1.19E-08 2x: 0.00E+00 2u: 0.00E+00 ir: 3.83E-10 iu: 0.00E+00 rsn:   0
  1 2r: 2.84E-14 2x: 6.45E+07 2u: 3.36E-01 ir: 2.06E-14 iu: 7.31E-03 rsn: itol_upd
 Step    547 Time=  2.67500E+01 Dt=  5.00000E-02 [y] snes_conv_reason:   11
  newton =   1 [     553] linear =   102 [     64654] cuts =  0 [   0]
  --> max chng: dpmx=   7.3134E-03 dtmpmx=   1.1522E-04

== TH FLOW =====================================================================
  0 2r: 1.19E-08 2x: 0.00E+00 2u: 0.00E+00 ir: 3.83E-10 iu: 0.00E+00 rsn:   0
  1 2r: 3.50E-14 2x: 6.45E+07 2u: 3.36E-01 ir: 2.00E-14 iu: 7.31E-03 rsn: itol_upd
 Step    548 Time=  2.68000E+01 Dt=  5.00000E-02 [y] snes_conv_reason:   11
  newton =   1 [     554] linear =   102 [     64756] cuts =  0 [   0]
  --> max chng: dpmx=   7.3121E-03 dtmpmx=   1.1518E-04

== TH FLOW =====================================================================
  0 2r: 1.19E-08 2x: 0.00E+00 2u: 0.00E+00 ir: 3.83E-10 iu: 0.00E+00 rsn:   0
  1 2r: 3.03E-14 2x: 6.45E+07 2u: 3.36E-01 ir: 2.04E-14 iu: 7.31E-03 rsn: itol_upd
 Step    549 Time=  2.68500E+01 Dt=  5.00000E-02 [y] snes_conv_reason:   11
  newton =   1 [     555] linear =   105 [     64861] cuts =  0 [   0]
  --> max chng: dpmx=   7.3092E-03 dtmpmx=   1.1513E-04

== TH FLOW =====================================================================
  0 2r: 1.18E-08 2x: 0.00E+00 2u: 0.00E+00 ir: 3.83E-10 iu: 0.00E+00 rsn:   0
  1 2r: 2.97E-14 2x: 6.45E+07 2u: 3.35E-01 ir: 2.04E-14 iu: 7.31E-03 rsn: itol_upd
 Step    550 Time=  2.69000E+01 Dt=  5.00000E-02 [y] snes_conv_reason:   11
  newton =   1 [     556] linear =   105 [     64966] cuts =  0 [   0]
  --> max chng: dpmx=   7.3065E-03 dtmpmx=   1.1508E-04

== TH FLOW =====================================================================
  0 2r: 1.18E-08 2x: 0.00E+00 2u: 0.00E+00 ir: 3.83E-10 iu: 0.00E+00 rsn:   0
  1 2r: 2.91E-14 2x: 6.45E+07 2u: 3.35E-01 ir: 1.99E-14 iu: 7.30E-03 rsn: itol_upd
 Step    551 Time=  2.69500E+01 Dt=  5.00000E-02 [y] snes_conv_reason:   11
  newton =   1 [     557] linear =   109 [     65075] cuts =  0 [   0]
  --> max chng: dpmx=   7.3017E-03 dtmpmx=   1.1504E-04

== TH FLOW =====================================================================
  0 2r: 1.17E-08 2x: 0.00E+00 2u: 0.00E+00 ir: 3.82E-10 iu: 0.00E+00 rsn:   0
  1 2r: 2.82E-14 2x: 6.45E+07 2u: 3.35E-01 ir: 1.99E-14 iu: 7.30E-03 rsn: itol_upd
 Step    552 Time=  2.70000E+01 Dt=  5.00000E-02 [y] snes_conv_reason:   11
  newton =   1 [     558] linear =   106 [     65181] cuts =  0 [   0]
  --> max chng: dpmx=   7.2993E-03 dtmpmx=   1.1499E-04

== TH FLOW =====================================================================
  0 2r: 1.17E-08 2x: 0.00E+00 2u: 0.00E+00 ir: 3.82E-10 iu: 0.00E+00 rsn:   0
  1 2r: 3.12E-14 2x: 6.45E+07 2u: 3.35E-01 ir: 1.99E-14 iu: 7.29E-03 rsn: itol_upd
 Step    553 Time=  2.70500E+01 Dt=  5.00000E-02 [y] snes_conv_reason:   11
  newton =   1 [     559] linear =   106 [     65287] cuts =  0 [   0]
  --> max chng: dpmx=   7.2947E-03 dtmpmx=   1.1494E-04

== TH FLOW =====================================================================
  0 2r: 1.17E-08 2x: 0.00E+00 2u: 0.00E+00 ir: 3.82E-10 iu: 0.00E+00 rsn:   0
  1 2r: 2.81E-14 2x: 6.45E+07 2u: 3.35E-01 ir: 2.00E-14 iu: 7.29E-03 rsn: itol_upd
 Step    554 Time=  2.71000E+01 Dt=  5.00000E-02 [y] snes_conv_reason:   11
  newton =   1 [     560] linear =   106 [     65393] cuts =  0 [   0]
  --> max chng: dpmx=   7.2906E-03 dtmpmx=   1.1490E-04

== TH FLOW =====================================================================
  0 2r: 1.16E-08 2x: 0.00E+00 2u: 0.00E+00 ir: 3.82E-10 iu: 0.00E+00 rsn:   0
  1 2r: 2.73E-14 2x: 6.45E+07 2u: 3.35E-01 ir: 1.95E-14 iu: 7.29E-03 rsn: itol_upd
 Step    555 Time=  2.71500E+01 Dt=  5.00000E-02 [y] snes_conv_reason:   11
  newton =   1 [     561] linear =   106 [     65499] cuts =  0 [   0]
  --> max chng: dpmx=   7.2856E-03 dtmpmx=   1.1485E-04

== TH FLOW =====================================================================
  0 2r: 1.16E-08 2x: 0.00E+00 2u: 0.00E+00 ir: 3.82E-10 iu: 0.00E+00 rsn:   0
  1 2r: 2.94E-14 2x: 6.45E+07 2u: 3.34E-01 ir: 1.94E-14 iu: 7.28E-03 rsn: itol_upd
 Step    556 Time=  2.72000E+01 Dt=  5.00000E-02 [y] snes_conv_reason:   11
  newton =   1 [     562] linear =   106 [     65605] cuts =  0 [   0]
  --> max chng: dpmx=   7.2806E-03 dtmpmx=   1.1480E-04

== TH FLOW =====================================================================
  0 2r: 1.16E-08 2x: 0.00E+00 2u: 0.00E+00 ir: 3.82E-10 iu: 0.00E+00 rsn:   0
  1 2r: 2.85E-14 2x: 6.45E+07 2u: 3.34E-01 ir: 1.99E-14 iu: 7.27E-03 rsn: itol_upd
 Step    557 Time=  2.72500E+01 Dt=  5.00000E-02 [y] snes_conv_reason:   11
  newton =   1 [     563] linear =   106 [     65711] cuts =  0 [   0]
  --> max chng: dpmx=   7.2747E-03 dtmpmx=   1.1475E-04

== TH FLOW =====================================================================
  0 2r: 1.15E-08 2x: 0.00E+00 2u: 0.00E+00 ir: 3.81E-10 iu: 0.00E+00 rsn:   0
  1 2r: 3.15E-14 2x: 6.45E+07 2u: 3.34E-01 ir: 1.88E-14 iu: 7.27E-03 rsn: itol_upd
 Step    558 Time=  2.73000E+01 Dt=  5.00000E-02 [y] snes_conv_reason:   11
  newton =   1 [     564] linear =   108 [     65819] cuts =  0 [   0]
  --> max chng: dpmx=   7.2686E-03 dtmpmx=   1.1471E-04

== TH FLOW =====================================================================
  0 2r: 1.15E-08 2x: 0.00E+00 2u: 0.00E+00 ir: 3.81E-10 iu: 0.00E+00 rsn:   0
  1 2r: 2.75E-14 2x: 6.45E+07 2u: 3.33E-01 ir: 1.93E-14 iu: 7.26E-03 rsn: itol_upd
 Step    559 Time=  2.73500E+01 Dt=  5.00000E-02 [y] snes_conv_reason:   11
  newton =   1 [     565] linear =   108 [     65927] cuts =  0 [   0]
  --> max chng: dpmx=   7.2625E-03 dtmpmx=   1.1466E-04

== TH FLOW =====================================================================
  0 2r: 1.15E-08 2x: 0.00E+00 2u: 0.00E+00 ir: 3.81E-10 iu: 0.00E+00 rsn:   0
  1 2r: 2.82E-14 2x: 6.45E+07 2u: 3.33E-01 ir: 1.90E-14 iu: 7.26E-03 rsn: itol_upd
 Step    560 Time=  2.74000E+01 Dt=  5.00000E-02 [y] snes_conv_reason:   11
  newton =   1 [     566] linear =   102 [     66029] cuts =  0 [   0]
  --> max chng: dpmx=   7.2556E-03 dtmpmx=   1.1461E-04

== TH FLOW =====================================================================
  0 2r: 1.14E-08 2x: 0.00E+00 2u: 0.00E+00 ir: 3.81E-10 iu: 0.00E+00 rsn:   0
  1 2r: 2.61E-14 2x: 6.45E+07 2u: 3.33E-01 ir: 1.84E-14 iu: 7.25E-03 rsn: itol_upd
 Step    561 Time=  2.74500E+01 Dt=  5.00000E-02 [y] snes_conv_reason:   11
  newton =   1 [     567] linear =   110 [     66139] cuts =  0 [   0]
  --> max chng: dpmx=   7.2491E-03 dtmpmx=   1.1456E-04

== TH FLOW =====================================================================
  0 2r: 1.14E-08 2x: 0.00E+00 2u: 0.00E+00 ir: 3.81E-10 iu: 0.00E+00 rsn:   0
  1 2r: 2.77E-14 2x: 6.45E+07 2u: 3.33E-01 ir: 1.92E-14 iu: 7.24E-03 rsn: itol_upd
 Step    562 Time=  2.75000E+01 Dt=  5.00000E-02 [y] snes_conv_reason:   11
  newton =   1 [     568] linear =   103 [     66242] cuts =  0 [   0]
  --> max chng: dpmx=   7.2416E-03 dtmpmx=   1.1451E-04

 Wall Clock Time:  1.4638E+02 [sec]   2.4396E+00 [min]   4.0660E-02 [hr]
